data_sym_5_on_12
_audit_creation_date              2014-09-27
_audit_creation_method            'Materials Studio'
_symmetry_space_group_name_H-M    'P1'
_symmetry_Int_Tables_number       1
_symmetry_cell_setting            triclinic
loop_
_symmetry_equiv_pos_as_xyz
  x,y,z
_cell_length_a                    20.0000
_cell_length_b                    20.0000
_cell_length_c                    20.0000
_cell_angle_alpha                 90.0000
_cell_angle_beta                  90.0000
_cell_angle_gamma                 90.0000
loop_
_atom_site_label
_atom_site_type_symbol
_atom_site_fract_x
_atom_site_fract_y
_atom_site_fract_z
_atom_site_U_iso_or_equiv
_atom_site_adp_type
_atom_site_occupancy
C1     C    -0.03454   0.20968  -0.00174   0.00000  Uiso   1.00
C2     C     0.03454   0.20968   0.00174   0.00000  Uiso   1.00
C3     C     0.05382   0.14336   0.00291   0.00000  Uiso   1.00
N4     N    -0.00000   0.10318   0.00000   0.00000  Uiso   1.00
C5     C    -0.05382   0.14336  -0.00291   0.00000  Uiso   1.00
X6     C     0.12014   0.12106   0.00418   0.00000  Uiso   1.00
C7     C     0.14164   0.05428   0.00565   0.00000  Uiso   1.00
C8     C     0.20753   0.03462  -0.00115   0.00000  Uiso   1.00
C9     C     0.20753  -0.03462  -0.00115   0.00000  Uiso   1.00
C10    C     0.14164  -0.05429   0.00565   0.00000  Uiso   1.00
N11    N     0.10201  -0.00000   0.01151   0.00000  Uiso   1.00
X12    C     0.12014  -0.12107   0.00418   0.00000  Uiso   1.00
C13    C     0.05382  -0.14337   0.00291   0.00000  Uiso   1.00
C14    C     0.03454  -0.20968   0.00174   0.00000  Uiso   1.00
C15    C    -0.03454  -0.20968  -0.00174   0.00000  Uiso   1.00
C16    C    -0.05382  -0.14337  -0.00291   0.00000  Uiso   1.00
N17    N    -0.00000  -0.10318   0.00000   0.00000  Uiso   1.00
X18    C    -0.12014  -0.12107  -0.00418   0.00000  Uiso   1.00
C19    C    -0.14164  -0.05429  -0.00565   0.00000  Uiso   1.00
C20    C    -0.20753  -0.03462   0.00115   0.00000  Uiso   1.00
C21    C    -0.20753   0.03462   0.00115   0.00000  Uiso   1.00
C22    C    -0.14164   0.05428  -0.00565   0.00000  Uiso   1.00
N23    N    -0.10202  -0.00000  -0.01151   0.00000  Uiso   1.00
X24    C    -0.12014   0.12106  -0.00418   0.00000  Uiso   1.00
H25    H    -0.06682   0.25309  -0.00304   0.00000  Uiso   1.00
H26    H     0.06682   0.25309   0.00304   0.00000  Uiso   1.00
H27    H    -0.05157  -0.00000  -0.02282   0.00000  Uiso   1.00
H28    H     0.25064   0.06678  -0.00718   0.00000  Uiso   1.00
H29    H     0.25064  -0.06678  -0.00718   0.00000  Uiso   1.00
H30    H     0.06682  -0.25309   0.00304   0.00000  Uiso   1.00
H31    H    -0.06682  -0.25309  -0.00304   0.00000  Uiso   1.00
H32    H    -0.25064   0.06678   0.00718   0.00000  Uiso   1.00
H33    H     0.05157  -0.00000   0.02282   0.00000  Uiso   1.00
H34    H    -0.25064  -0.06678   0.00718   0.00000  Uiso   1.00
loop_
_geom_bond_atom_site_label_1
_geom_bond_atom_site_label_2
_geom_bond_distance
_geom_bond_site_symmetry_2
_ccdc_geom_bond_type
H34    C20     1.082   .     S
C1     C2      1.383   .     A
C1     C5      1.381   .     A
C1     H25     1.082   .     S
C2     C3      1.381   .     A
C2     H26     1.082   .     S
C3     N4      1.345   .     A
C3     X6      1.400   .     A
N4     C5      1.345   .     A
C5     X24     1.400   .     A
X6     C7      1.403   .     A
C7     C8      1.382   .     A
C7     N11     1.349   .     A
C8     C9      1.385   .     A
C8     H28     1.082   .     S
C9     C10     1.382   .     A
C9     H29     1.082   .     S
C10    N11     1.349   .     A
C10    X12     1.403   .     A
N11    H33     1.034   .     S
X12    C13     1.400   .     A
C13    C14     1.381   .     A
C13    N17     1.345   .     A
C14    C15     1.383   .     A
C14    H30     1.082   .     S
C15    C16     1.381   .     A
C15    H31     1.082   .     S
C16    N17     1.345   .     A
C16    X18     1.400   .     A
X18    C19     1.403   .     A
C19    C20     1.382   .     A
C19    N23     1.349   .     A
C20    C21     1.385   .     A
C21    C22     1.382   .     A
C21    H32     1.082   .     S
C22    N23     1.349   .     A
C22    X24     1.403   .     A
N23    H27     1.034   .     S