data_sym_3_on_4 
_audit_creation_date              2014-09-12
_audit_creation_method            'Materials Studio'
_symmetry_space_group_name_H-M    'P1'
_symmetry_Int_Tables_number       1
_symmetry_cell_setting            triclinic
loop_
_symmetry_equiv_pos_as_xyz
  x,y,z
_cell_length_a                    20.0000
_cell_length_b                    20.0000
_cell_length_c                    20.0000
_cell_angle_alpha                 90.0000
_cell_angle_beta                  90.0000
_cell_angle_gamma                 90.0000
loop_
_atom_site_label
_atom_site_type_symbol
_atom_site_fract_x
_atom_site_fract_y
_atom_site_fract_z
_atom_site_U_iso_or_equiv
_atom_site_adp_type
_atom_site_occupancy
C1     C    -0.03850  -0.06668   0.00000   0.00000  Uiso   1.00
C2     C    -0.00000  -0.13337   0.00000   0.00000  Uiso   1.00
X3     C     0.07700  -0.13337   0.00000   0.00000  Uiso   1.00
C4     C     0.11550  -0.06668   0.00000   0.00000  Uiso   1.00
C5     C     0.07700  -0.00000   0.00000   0.00000  Uiso   1.00
C6     C     0.00000   0.00000   0.00000   0.00000  Uiso   1.00
C7     C    -0.11550  -0.06668   0.00000   0.00000  Uiso   1.00
X8     C    -0.15400   0.00000  -0.00000   0.00000  Uiso   1.00
C9     C    -0.11550   0.06668  -0.00000   0.00000  Uiso   1.00
C10    C    -0.03850   0.06668   0.00000   0.00000  Uiso   1.00
C11    C     0.00000   0.13337  -0.00000   0.00000  Uiso   1.00
X12    C     0.07700   0.13337  -0.00000   0.00000  Uiso   1.00
C13    C     0.11550   0.06668   0.00000   0.00000  Uiso   1.00
H14    H    -0.02850  -0.18273   0.00000   0.00000  Uiso   1.00
H15    H     0.17250  -0.06668   0.00000   0.00000  Uiso   1.00
H16    H    -0.14400  -0.11605   0.00000   0.00000  Uiso   1.00
H17    H    -0.14400   0.11605  -0.00000   0.00000  Uiso   1.00
H18    H    -0.02850   0.18273  -0.00000   0.00000  Uiso   1.00
H19    H     0.17250   0.06668   0.00000   0.00000  Uiso   1.00
loop_
_geom_bond_atom_site_label_1
_geom_bond_atom_site_label_2
_geom_bond_distance
_geom_bond_site_symmetry_2
_ccdc_geom_bond_type
C1     C2      1.540   .     A
C1     C6      1.540   .     A
C1     C7      1.540   .     A
C2     X3      1.540   .     A
C2     H14     1.140   .     S
X3     C4      1.540   .     A
C4     C5      1.540   .     A
C4     H15     1.140   .     S
C5     C6      1.540   .     A
C5     C13     1.540   .     A
C6     C10     1.540   .     A
C7     X8      1.540   .     A
C7     H16     1.140   .     S
X8     C9      1.540   .     A
C9     C10     1.540   .     A
C9     H17     1.140   .     S
C10    C11     1.540   .     A
C11    X12     1.540   .     A
C11    H18     1.140   .     S
X12    C13     1.540   .     A
C13    H19     1.140   .     S