data_sym_5_on_13
_audit_creation_date              2014-09-12
_audit_creation_method            'Materials Studio'
_symmetry_space_group_name_H-M    'P1'
_symmetry_Int_Tables_number       1
_symmetry_cell_setting            triclinic
loop_
_symmetry_equiv_pos_as_xyz
  x,y,z
_cell_length_a                    20.0000
_cell_length_b                    20.0000
_cell_length_c                    20.0000
_cell_angle_alpha                 90.0000
_cell_angle_beta                  90.0000
_cell_angle_gamma                 90.0000
loop_
_atom_site_label
_atom_site_type_symbol
_atom_site_fract_x
_atom_site_fract_y
_atom_site_fract_z
_atom_site_U_iso_or_equiv
_atom_site_adp_type
_atom_site_occupancy
C1     C    -0.03846   0.00108   0.00019   0.00000  Uiso   1.00
C2     C     0.03846  -0.00108  -0.00019   0.00000  Uiso   1.00
C3     C     0.07453  -0.06907  -0.00096   0.00000  Uiso   1.00
C4     C     0.07829   0.06478   0.00020   0.00000  Uiso   1.00
C5     C    -0.07453   0.06907   0.00096   0.00000  Uiso   1.00
C6     C    -0.07829  -0.06478  -0.00020   0.00000  Uiso   1.00
C7     C     0.09056  -0.10530   0.06486   0.00000  Uiso   1.00
C8     C     0.13124  -0.16998   0.06409   0.00000  Uiso   1.00
X9     C     0.14665  -0.20504  -0.00250   0.00000  Uiso   1.00
C10    C     0.13062  -0.16881  -0.06831   0.00000  Uiso   1.00
C11    C     0.08994  -0.10413  -0.06755   0.00000  Uiso   1.00
C12    C     0.09630   0.09890   0.06663   0.00000  Uiso   1.00
C13    C     0.14055   0.16121   0.06697   0.00000  Uiso   1.00
X14    C     0.15794   0.19650   0.00099   0.00000  Uiso   1.00
C15    C     0.13992   0.16237  -0.06544   0.00000  Uiso   1.00
C16    C     0.09568   0.10007  -0.06578   0.00000  Uiso   1.00
C17    C    -0.09056   0.10530  -0.06486   0.00000  Uiso   1.00
C18    C    -0.13124   0.16998  -0.06409   0.00000  Uiso   1.00
X19    C    -0.14665   0.20504   0.00250   0.00000  Uiso   1.00
C20    C    -0.13062   0.16881   0.06831   0.00000  Uiso   1.00
C21    C    -0.08994   0.10413   0.06755   0.00000  Uiso   1.00
C22    C    -0.09630  -0.09890  -0.06663   0.00000  Uiso   1.00
C23    C    -0.14055  -0.16121  -0.06697   0.00000  Uiso   1.00
X24    C    -0.15794  -0.19650  -0.00099   0.00000  Uiso   1.00
C25    C    -0.13992  -0.16237   0.06544   0.00000  Uiso   1.00
C26    C    -0.09568  -0.10007   0.06578   0.00000  Uiso   1.00
H27    H     0.07206  -0.08385   0.11432   0.00000  Uiso   1.00
H28    H     0.15021  -0.19230   0.11299   0.00000  Uiso   1.00
H29    H     0.14907  -0.19017  -0.11783   0.00000  Uiso   1.00
H30    H     0.07097  -0.08181  -0.11645   0.00000  Uiso   1.00
H31    H     0.07660   0.07767   0.11572   0.00000  Uiso   1.00
H32    H     0.16071   0.18157   0.11624   0.00000  Uiso   1.00
H33    H     0.07551   0.07971  -0.11505   0.00000  Uiso   1.00
H34    H    -0.07206   0.08385  -0.11432   0.00000  Uiso   1.00
H35    H    -0.15021   0.19230  -0.11299   0.00000  Uiso   1.00
H36    H    -0.14907   0.19017   0.11783   0.00000  Uiso   1.00
H37    H    -0.07097   0.08181   0.11645   0.00000  Uiso   1.00
H38    H    -0.07660  -0.07767  -0.11572   0.00000  Uiso   1.00
H39    H    -0.16071  -0.18157  -0.11624   0.00000  Uiso   1.00
H40    H    -0.15957  -0.18352   0.11459   0.00000  Uiso   1.00
H41    H    -0.07551  -0.07971   0.11505   0.00000  Uiso   1.00
H42    H     0.15957   0.18352  -0.11459   0.00000  Uiso   1.00
loop_
_geom_bond_atom_site_label_1
_geom_bond_atom_site_label_2
_geom_bond_distance
_geom_bond_site_symmetry_2
_ccdc_geom_bond_type
C1     C2      1.539   .     D
C1     C5      1.539   .     S
C1     C6      1.539   .     S
C2     C3      1.539   .     S
C2     C4      1.539   .     S
C3     C7      1.536   .     A
C3     C11     1.536   .     A
C4     C12     1.536   .     A
C4     C16     1.536   .     A
C5     C17     1.536   .     A
C5     C21     1.536   .     A
C6     C22     1.536   .     A
C6     C26     1.536   .     A
C7     C8      1.528   .     A
C7     H27     1.140   .     S
C8     X9      1.536   .     A
C8     H28     1.140   .     S
X9     C10     1.536   .     A
C10    C11     1.528   .     A
C10    H29     1.140   .     S
C11    H30     1.140   .     S
C12    C13     1.528   .     A
C12    H31     1.140   .     S
C13    X14     1.536   .     A
C13    H32     1.140   .     S
X14    C15     1.536   .     A
C15    C16     1.528   .     A
C15    H42     1.140   .     S
C16    H33     1.140   .     S
C17    C18     1.528   .     A
C17    H34     1.140   .     S
C18    X19     1.536   .     A
C18    H35     1.140   .     S
X19    C20     1.536   .     A
C20    C21     1.528   .     A
C20    H36     1.140   .     S
C21    H37     1.140   .     S
C22    C23     1.528   .     A
C22    H38     1.140   .     S
C23    X24     1.536   .     A
C23    H39     1.140   .     S
X24    C25     1.536   .     A
C25    C26     1.528   .     A
C25    H40     1.140   .     S
C26    H41     1.140   .     S