data_sym_8_mc_8
_audit_creation_date              2014-09-12
_audit_creation_method            'Materials Studio'
_symmetry_space_group_name_H-M    'P1'
_symmetry_Int_Tables_number       1
_symmetry_cell_setting            triclinic
loop_
_symmetry_equiv_pos_as_xyz
  x,y,z
_cell_length_a                    30.0000
_cell_length_b                    30.0000
_cell_length_c                    30.0000
_cell_angle_alpha                 90.0000
_cell_angle_beta                  90.0000
_cell_angle_gamma                 90.0000
loop_
_atom_site_label
_atom_site_type_symbol
_atom_site_fract_x
_atom_site_fract_y
_atom_site_fract_z
_atom_site_U_iso_or_equiv
_atom_site_adp_type
_atom_site_occupancy
N1     N    -0.08426   0.05140  -0.05311   0.00000  Uani   1.00
N2     N    -0.11161   0.08597  -0.05909   0.00000  Uani   1.00
N3     N    -0.05311  -0.05140  -0.08426   0.00000  Uani   1.00
N4     N    -0.05909  -0.08597  -0.11161   0.00000  Uani   1.00
N5     N    -0.08426  -0.05140  -0.05311   0.00000  Uani   1.00
N6     N    -0.11161  -0.08597  -0.05909   0.00000  Uani   1.00
N7     N    -0.05311   0.05140  -0.08426   0.00000  Uani   1.00
N8     N    -0.05909   0.08597  -0.11161   0.00000  Uani   1.00
X9     C    -0.09545   0.10647  -0.09545   0.00000  Uani   1.00
X10    C    -0.09545  -0.10647  -0.09545   0.00000  Uani   1.00
N11    N     0.08426  -0.05140  -0.05311   0.00000  Uani   1.00
N12    N     0.11161  -0.08597  -0.05909   0.00000  Uani   1.00
N13    N     0.05311   0.05140  -0.08426   0.00000  Uani   1.00
N14    N     0.05909   0.08597  -0.11161   0.00000  Uani   1.00
N15    N     0.08426   0.05140  -0.05311   0.00000  Uani   1.00
N16    N     0.11161   0.08597  -0.05909   0.00000  Uani   1.00
N17    N     0.05311  -0.05140  -0.08426   0.00000  Uani   1.00
N18    N     0.05909  -0.08597  -0.11161   0.00000  Uani   1.00
Mn19   Mn    0.00000   0.00000  -0.09118   0.00000  Uani   1.00
X20    C     0.09545  -0.10647  -0.09545   0.00000  Uani   1.00
X21    C     0.09545   0.10647  -0.09545   0.00000  Uani   1.00
N22    N    -0.08426  -0.05140   0.05311   0.00000  Uani   1.00
N23    N    -0.11161  -0.08597   0.05909   0.00000  Uani   1.00
N24    N    -0.05311   0.05140   0.08426   0.00000  Uani   1.00
N25    N    -0.05909   0.08597   0.11161   0.00000  Uani   1.00
N26    N    -0.08426   0.05140   0.05311   0.00000  Uani   1.00
N27    N    -0.11161   0.08597   0.05909   0.00000  Uani   1.00
N28    N    -0.05311  -0.05140   0.08426   0.00000  Uani   1.00
N29    N    -0.05909  -0.08597   0.11161   0.00000  Uani   1.00
Mn30   Mn   -0.09118   0.00000   0.00000   0.00000  Uani   1.00
X31    C    -0.09545  -0.10647   0.09545   0.00000  Uani   1.00
X32    C    -0.09545   0.10647   0.09545   0.00000  Uani   1.00
N33    N     0.08426   0.05140   0.05311   0.00000  Uani   1.00
N34    N     0.11161   0.08597   0.05909   0.00000  Uani   1.00
N35    N     0.05311  -0.05140   0.08426   0.00000  Uani   1.00
N36    N     0.05909  -0.08597   0.11161   0.00000  Uani   1.00
N37    N     0.08426  -0.05140   0.05311   0.00000  Uani   1.00
N38    N     0.11161  -0.08597   0.05909   0.00000  Uani   1.00
N39    N     0.05311   0.05140   0.08426   0.00000  Uani   1.00
N40    N     0.05909   0.08597   0.11161   0.00000  Uani   1.00
Mn41   Mn    0.09118   0.00000   0.00000   0.00000  Uani   1.00
Mn42   Mn    0.00000   0.00000   0.09118   0.00000  Uani   1.00
Cl43   Cl    0.00000   0.00000   0.00000   0.01540  Uiso   1.00
X44    C     0.09545   0.10647   0.09545   0.00000  Uani   1.00
X45    C     0.09545  -0.10647   0.09545   0.00000  Uani   1.00
Li46   O   -0.15884  -0.00065  -0.00085   0.00000  Uiso   1.00
Li47   O    0.00078  -0.00136  -0.15883   0.00000  Uiso   1.00
Li48   O    0.15884   0.00065   0.00068   0.00000  Uiso   1.00
Li49   O   -0.00028   0.00136   0.15883   0.00000  Uiso   1.00
Li50   O   -0.00171   0.05758   0.00260   0.00000  Uiso   1.00
Li51   O   -0.00226  -0.05760  -0.00168   0.00000  Uiso   1.00
loop_
_geom_bond_atom_site_label_1
_geom_bond_atom_site_label_2
_geom_bond_distance
_geom_bond_site_symmetry_2
_ccdc_geom_bond_type
N1     Mn30    2.227   .     S
N1     N2      1.335   .     S
N1     N7      1.322   .     D
N2     X9      1.343   .     D
N3     Mn19    2.227   .     S
N3     N4      1.335   .     S
N3     N5      1.322   .     D
N4     X10     1.343   .     S
N5     Mn30    2.227   .     S
N5     N6      1.335   .     S
N6     X10     1.343   .     D
N7     Mn19    2.227   .     S
N7     N8      1.335   .     S
N8     X9      1.343   .     S
N11    Mn41    2.227   .     S
N11    N12     1.335   .     S
N11    N17     1.322   .     D
N12    X20     1.343   .     D
N13    Mn19    2.227   .     S
N13    N14     1.335   .     S
N13    N15     1.322   .     D
N14    X21     1.343   .     D
N15    Mn41    2.227   .     S
N15    N16     1.335   .     S
N16    X21     1.343   .     S
N17    Mn19    2.227   .     S
N17    N18     1.335   .     S
N18    X20     1.343   .     S
Mn19   Li47     2.030   .     S
Mn19   Cl43    2.735   .     S
N22    Mn30    2.227   .     S
N22    N23     1.335   .     S
N22    N28     1.322   .     D
N23    X31     1.343   .     S
N24    Mn42    2.227   .     S
N24    N25     1.335   .     S
N24    N26     1.322   .     D
N25    X32     1.343   .     D
N26    Mn30    2.227   .     S
N26    N27     1.335   .     S
N27    X32     1.343   .     S
N28    Mn42    2.227   .     S
N28    N29     1.335   .     S
N29    X31     1.343   .     D
Mn30   Li46     2.030   .     S
Mn30   Cl43    2.735   .     S
N33    Mn41    2.227   .     S
N33    N34     1.335   .     S
N33    N39     1.322   .     D
N34    X44     1.343   .     S
N35    Mn42    2.227   .     S
N35    N36     1.335   .     S
N35    N37     1.322   .     D
N36    X45     1.343   .     D
N37    Mn41    2.227   .     S
N37    N38     1.335   .     S
N38    X45     1.343   .     S
N39    Mn42    2.227   .     S
N39    N40     1.335   .     S
N40    X44     1.343   .     D
Mn41   Li48     2.030   .     S
Mn41   Cl43    2.735   .     S
Mn42   Li49     2.030   .     S
Mn42   Cl43    2.735   .     S
Cl43   Li50     1.730   .     S
Cl43   Li51     1.730   .     S