data_sym_4_on_7
_audit_creation_date              2014-09-13
_audit_creation_method            'Materials Studio'
_symmetry_space_group_name_H-M    'P1'
_symmetry_Int_Tables_number       1
_symmetry_cell_setting            triclinic
loop_
_symmetry_equiv_pos_as_xyz
  x,y,z
_cell_length_a                    10.0000
_cell_length_b                    10.0000
_cell_length_c                    10.0000
_cell_angle_alpha                 90.0000
_cell_angle_beta                  90.0000
_cell_angle_gamma                 90.0000
loop_
_atom_site_label
_atom_site_type_symbol
_atom_site_fract_x
_atom_site_fract_y
_atom_site_fract_z
_atom_site_U_iso_or_equiv
_atom_site_adp_type
_atom_site_occupancy
X1     C     0.03609   0.16352  -0.00968   0.00000  Uiso   1.00
C2     C     0.10698   0.07049  -0.10989   0.00000  Uiso   1.00
X3     C     0.07373  -0.07959  -0.10105   0.00000  Uiso   1.00
C4     C    -0.02698  -0.12241   0.00733   0.00000  Uiso   1.00
C5     C    -0.11094   0.12325  -0.03120   0.00000  Uiso   1.00
X6     C    -0.14418  -0.02683  -0.02181   0.00000  Uiso   1.00
C7     C     0.06728   0.09310   0.12371   0.00000  Uiso   1.00
X8     C    0.03435  -0.05710   0.13254   0.00000  Uiso   1.00
H9     H     0.18015   0.11371  -0.18587   0.00000  Uiso   1.00
H10    H    -0.05150  -0.23355   0.01391   0.00000  Uiso   1.00
H11    H    -0.18932   0.20313  -0.05293   0.00000  Uiso   1.00
H12    H     0.11261   0.15210   0.21007   0.00000  Uiso   1.00
loop_
_geom_bond_atom_site_label_1
_geom_bond_atom_site_label_2
_geom_bond_distance
_geom_bond_site_symmetry_2
_ccdc_geom_bond_type
X1     C2      1.540   .     S
X1     C5      1.540   .     S
X1     C7      1.540   .     S
C2     X3      1.540   .     D
C2     H9      1.140   .     S
X3     C4      1.540   .     S
C4     X6      1.540   .     S
C4     X8      1.540   .     S
C4     H10     1.140   .     S
C5     X6      1.540   .     D
C5     H11     1.140   .     S
C7     X8      1.540   .     D
C7     H12     1.140   .     S