data_sym_5_on_10
_audit_creation_date              2014-09-10
_audit_creation_method            'Materials Studio'
_symmetry_space_group_name_H-M    'P1'
_symmetry_Int_Tables_number       1
_symmetry_cell_setting            triclinic
loop_
_symmetry_equiv_pos_as_xyz
  x,y,z
_cell_length_a                    20.0000
_cell_length_b                    20.0000
_cell_length_c                    20.0000
_cell_angle_alpha                 90.0000
_cell_angle_beta                  90.0000
_cell_angle_gamma                 90.0000
loop_
_atom_site_label
_atom_site_type_symbol
_atom_site_fract_x
_atom_site_fract_y
_atom_site_fract_z
_atom_site_U_iso_or_equiv
_atom_site_adp_type
_atom_site_occupancy
C1     C    -0.19239  -0.00675  -0.00000   0.00000  Uiso   1.00
X2     C    -0.15173  -0.07215   0.00001   0.00000  Uiso   1.00
C3     C    -0.07474  -0.06959   0.00001   0.00000  Uiso   1.00
C4     C    -0.03847  -0.00169   0.00001   0.00000  Uiso   1.00
C5     C    -0.07915   0.06370   0.00001   0.00000  Uiso   1.00
X6     C    -0.15609   0.06114   0.00000   0.00000  Uiso   1.00
C7     C     0.03848   0.00113   0.00002   0.00000  Uiso   1.00
C8     C     0.07458   0.06913   0.00002   0.00000  Uiso   1.00
X9     C     0.15153   0.07200   0.00000   0.00000  Uiso   1.00
C10    C     0.19239   0.00675   0.00000   0.00000  Uiso   1.00
X11    C     0.15628  -0.06127  -0.00000   0.00000  Uiso   1.00
C12    C     0.07933  -0.06414   0.00001   0.00000  Uiso   1.00
H13    H    -0.24936  -0.00861  -0.00002   0.00000  Uiso   1.00
H14    H    -0.04462  -0.11798   0.00001   0.00000  Uiso   1.00
H15    H    -0.05230   0.11398   0.00001   0.00000  Uiso   1.00
H16    H     0.04426   0.11740   0.00004   0.00000  Uiso   1.00
H17    H     0.24935   0.00879   0.00001   0.00000  Uiso   1.00
H18    H     0.05269  -0.11453   0.00002   0.00000  Uiso   1.00
loop_
_geom_bond_atom_site_label_1
_geom_bond_atom_site_label_2
_geom_bond_distance
_geom_bond_site_symmetry_2
_ccdc_geom_bond_type
C1     X2      1.540   .     A
C1     X6      1.540   .     A
C1     H13     1.140   .     S
X2     C3      1.541   .     A
C3     C4      1.540   .     A
C3     H14     1.140   .     S
C4     C5      1.540   .     A
C4     C7      1.540   .     S
C5     X6      1.539   .     A
C5     H15     1.140   .     S
C7     C8      1.540   .     A
C7     C12     1.540   .     A
C8     X9      1.540   .     A
C8     H16     1.140   .     S
X9     C10     1.540   .     A
C10    X11     1.540   .     A
C10    H17     1.140   .     S
X11    C12     1.540   .     A
C12    H18     1.140   .     S