data_sym_3_on_3 
_audit_creation_date              2014-09-12
_audit_creation_method            'Materials Studio'
_symmetry_space_group_name_H-M    'P1'
_symmetry_Int_Tables_number       1
_symmetry_cell_setting            triclinic
loop_
_symmetry_equiv_pos_as_xyz
  x,y,z
_cell_length_a                    20.0000
_cell_length_b                    20.0000
_cell_length_c                    20.0000
_cell_angle_alpha                 90.0000
_cell_angle_beta                  90.0000
_cell_angle_gamma                 90.0000
loop_
_atom_site_label
_atom_site_type_symbol
_atom_site_fract_x
_atom_site_fract_y
_atom_site_fract_z
_atom_site_U_iso_or_equiv
_atom_site_adp_type
_atom_site_occupancy
X1     C    -0.07700   0.00000   0.00000   0.00000  Uiso   1.00
C2     C    -0.03850  -0.06668   0.00000   0.00000  Uiso   1.00
X3     C     0.03850  -0.06668   0.00000   0.00000  Uiso   1.00
C4     C     0.07700   0.00000   0.00000   0.00000  Uiso   1.00
X5     C     0.03850   0.06668   0.00000   0.00000  Uiso   1.00
C6     C    -0.03850   0.06668   0.00000   0.00000  Uiso   1.00
O7     O    -0.07625   1.13207   1.00000   0.00000  Uiso   1.00
H8     H    -0.04507   1.16857   1.00000   0.00000  Uiso   1.00
O9     O    -0.07625   0.86793   1.00000   0.00000  Uiso   1.00
H10    H    -0.04507   0.83143   1.00000   0.00000  Uiso   1.00
O11    O     1.15250   1.00000   1.00000   0.00000  Uiso   1.00
H12    H     1.16852   1.04524   1.00000   0.00000  Uiso   1.00
loop_
_geom_bond_atom_site_label_1
_geom_bond_atom_site_label_2
_geom_bond_distance
_geom_bond_site_symmetry_2
_ccdc_geom_bond_type
X1     C2      1.540   .     A
X1     C6      1.540   .     A
C2     X3      1.540   .     A
C2     O9      1.510   1_544 A
X3     C4      1.540   .     A
C4     X5      1.540   .     A
C4     O11     1.510   1_444 A
X5     C6      1.540   .     A
C6     O7      1.510   1_544 A
O7     H8      0.960   .     S
O7     C6      1.510   1_566 A
O9     H10     0.960   .     S
O9     C2      1.510   1_566 A
O11    H12     0.960   .     S
O11    C4      1.510   1_666 A