data_sym_8_mc_7
_audit_creation_date              2014-10-09
_audit_creation_method            'Materials Studio'
_symmetry_space_group_name_H-M    'P1'
_symmetry_Int_Tables_number       1
_symmetry_cell_setting            triclinic
loop_
_symmetry_equiv_pos_as_xyz
  x,y,z
_cell_length_a                    20.0000
_cell_length_b                    20.0000
_cell_length_c                    20.0000
_cell_angle_alpha                 90.0000
_cell_angle_beta                  90.0000
_cell_angle_gamma                 90.0000
loop_
_atom_site_label
_atom_site_type_symbol
_atom_site_fract_x
_atom_site_fract_y
_atom_site_fract_z
_atom_site_U_iso_or_equiv
_atom_site_adp_type
_atom_site_occupancy
O1     O    -0.06800  -0.14027  -0.06725   0.00000  Uani   1.00
O2     O     0.06810   0.14031  -0.06680   0.00000  Uani   1.00
O3     O    -0.14024   0.06807  -0.06727   0.00000  Uani   1.00
O4     O     0.14034  -0.06803  -0.06678   0.00000  Uani   1.00
O5     O    -0.06800   0.14031  -0.06708   0.00000  Uani   1.00
O6     O     0.06810  -0.14027  -0.06697   0.00000  Uani   1.00
O7     O     0.14034   0.06807  -0.06670   0.00000  Uani   1.00
O8     O    -0.14024  -0.06803  -0.06735   0.00000  Uani   1.00
X9     C    -0.11692  -0.11699  -0.09188   0.00000  Uani   1.00
X10    C     0.11712   0.11705  -0.09127   0.00000  Uani   1.00
X11    C    -0.11692   0.11705  -0.09175   0.00000  Uani   1.00
X12    C     0.11712  -0.11699  -0.09141   0.00000  Uani   1.00
O13    O     0.06782  -0.14035   0.06709   0.00000  Uani   1.00
O14    O    -0.06828   0.14023   0.06698   0.00000  Uani   1.00
O15    O    -0.14052  -0.06811   0.06671   0.00000  Uani   1.00
O16    O     0.14006   0.06799   0.06736   0.00000  Uani   1.00
O17    O     0.06782   0.14023   0.06725   0.00000  Uani   1.00
O18    O    -0.06828  -0.14035   0.06681   0.00000  Uani   1.00
O19    O     0.14006  -0.06811   0.06728   0.00000  Uani   1.00
O20    O    -0.14052   0.06799   0.06679   0.00000  Uani   1.00
Co21   Co   -0.00009  -0.11758  -0.00007   0.00000  Uani   1.00
Co22   Co   -0.00009   0.11754   0.00007   0.00000  Uani   1.00
Co23   Co   -0.11765  -0.00002  -0.00024   0.00000  Uani   1.00
Co24   Co    0.11747  -0.00002   0.00024   0.00000  Uani   1.00
O25    O    -0.00009  -0.00002   0.00000   0.00000  Uani   1.00
X26    C     0.11674  -0.11710   0.09175   0.00000  Uani   1.00
X27    C    -0.11730   0.11694   0.09141   0.00000  Uani   1.00
X28    C    -0.11730  -0.11710   0.09127   0.00000  Uani   1.00
X29    C     0.11674   0.11694   0.09189   0.00000  Uani   1.00
Li30   O   -0.00024  -0.00007   0.07394   0.00000  Uiso   1.00
Li31   O    0.00006   0.00002  -0.07393   0.00000  Uiso   1.00
Li32   O    0.00083   0.21503  -0.00030   0.00000  Uiso   1.00
Li33   O    0.00060  -0.21497  -0.00455   0.00000  Uiso   1.00
Li34   O    0.21489   0.00118  -0.00355   0.00000  Uiso   1.00
Li35   O   -0.21515   0.00051  -0.00012   0.00000  Uiso   1.00
loop_
_geom_bond_atom_site_label_1
_geom_bond_atom_site_label_2
_geom_bond_distance
_geom_bond_site_symmetry_2
_ccdc_geom_bond_type
O1     Co21    1.964   .     S
O1     X9      1.190   .     D
O2     Co22    1.964   .     S
O2     X10     1.190   .     S
O3     Co23    1.964   .     S
O3     X11     1.190   .     D
O4     Co24    1.964   .     S
O4     X12     1.190   .     D
O5     Co22    1.964   .     S
O5     X11     1.190   .     S
O6     Co21    1.964   .     S
O6     X12     1.190   .     S
O7     Co24    1.964   .     S
O7     X10     1.190   .     D
O8     Co23    1.964   .     S
O8     X9      1.190   .     S
O13    Co21    1.964   .     S
O13    X26     1.190   .     S
O14    Co22    1.964   .     S
O14    X27     1.190   .     S
O15    Co23    1.964   .     S
O15    X28     1.190   .     S
O16    Co24    1.964   .     S
O16    X29     1.190   .     D
O17    Co22    1.964   .     S
O17    X29     1.190   .     S
O18    Co21    1.964   .     S
O18    X28     1.190   .     D
O19    Co24    1.964   .     S
O19    X26     1.190   .     D
O20    Co23    1.964   .     S
O20    X27     1.190   .     D
Co21   O25     2.351   .     S
Co21   Li33    1.950   .     S
Co22   O25     2.351   .     S
Co22   Li32    1.950   .     S
Co23   O25     2.351   .     S
Co23   Li35    1.950   .     S
Co24   O25     2.351   .     S
Co24   Li34    1.950   .     S
O25    Li30    1.479   .     S
O25    Li31    1.479   .     S