data_L_11  
_audit_creation_date              2014-09-12
_audit_creation_method            'Materials Studio'
_symmetry_space_group_name_H-M    'P1'
_symmetry_Int_Tables_number       1
_symmetry_cell_setting            triclinic
loop_
_symmetry_equiv_pos_as_xyz
  x,y,z
_cell_length_a                    20.0000
_cell_length_b                    20.0000
_cell_length_c                    20.0000
_cell_angle_alpha                 90.0000
_cell_angle_beta                  90.0000
_cell_angle_gamma                 90.0000
loop_
_atom_site_label
_atom_site_type_symbol
_atom_site_fract_x
_atom_site_fract_y
_atom_site_fract_z
_atom_site_U_iso_or_equiv
_atom_site_adp_type
_atom_site_occupancy
X1     C    -0.00252   0.07205  -0.01340   0.00000  Uiso   1.00
C2     C    -0.06393   0.03060  -0.03426   0.00000  Uiso   1.00
C3     C    -0.06145  -0.04502  -0.01983   0.00000  Uiso   1.00
X4     C     0.00252  -0.07205   0.01340   0.00000  Uiso   1.00
C5     C     0.05673  -0.04335  -0.03319   0.00000  Uiso   1.00
C6     C     0.05429   0.03233  -0.04698   0.00000  Uiso   1.00
C7     C     0.00568   0.05054   0.06010   0.00000  Uiso   1.00
C8     C     0.00877  -0.02510   0.07410   0.00000  Uiso   1.00
H9     H    -0.10841   0.05611  -0.05914   0.00000  Uiso   1.00
H10    H    -0.10572  -0.07815  -0.03369   0.00000  Uiso   1.00
H11    H     0.09618  -0.07784  -0.05565   0.00000  Uiso   1.00
H12    H     0.09341   0.05643  -0.08071   0.00000  Uiso   1.00
H13    H     0.00917   0.08997   0.10111   0.00000  Uiso   1.00
H14    H     0.01540  -0.04396   0.12749   0.00000  Uiso   1.00
loop_
_geom_bond_atom_site_label_1
_geom_bond_atom_site_label_2
_geom_bond_distance
_geom_bond_site_symmetry_2
_ccdc_geom_bond_type
X1     C2      1.539   .     S
X1     C6      1.541   .     S
X1     C7      1.540   .     S
C2     C3      1.541   .     D
C2     H9      1.140   .     S
C3     X4      1.540   .     S
C3     H10     1.140   .     S
X4     C5      1.540   .     S
X4     C8      1.540   .     S
C5     C6      1.539   .     D
C5     H11     1.140   .     S
C6     H12     1.140   .     S
C7     C8      1.540   .     D
C7     H13     1.140   .     S
C8     H14     1.140   .     S