data_L_14
_audit_creation_date              2014-10-08
_audit_creation_method            'Materials Studio'
_symmetry_space_group_name_H-M    'P1'
_symmetry_Int_Tables_number       1
_symmetry_cell_setting            triclinic
loop_
_symmetry_equiv_pos_as_xyz
  x,y,z
_cell_length_a                    10.0000
_cell_length_b                    10.0000
_cell_length_c                    10.0000
_cell_angle_alpha                 90.0000
_cell_angle_beta                  90.0000
_cell_angle_gamma                 90.0000
loop_
_atom_site_label
_atom_site_type_symbol
_atom_site_fract_x
_atom_site_fract_y
_atom_site_fract_z
_atom_site_U_iso_or_equiv
_atom_site_adp_type
_atom_site_occupancy
X1     C    -0.01107   0.13747  -0.06888   0.00000  Uiso   1.00
C2     C     0.12491   0.06558  -0.06161   0.00000  Uiso   1.00
C3     C     0.13596  -0.07184   0.00707   0.00000  Uiso   1.00
X4     C     0.01107  -0.13747   0.06888   0.00000  Uiso   1.00
H5     H     0.21755   0.11414  -0.10711   0.00000  Uiso   1.00
H6     H     0.23662  -0.12505   0.01217   0.00000  Uiso   1.00
H7     H    -0.11361   1.08765   0.93081   0.00000  Uiso   1.00
H8     H    -0.09679   0.89943   1.06858   0.00000  Uiso   1.00
loop_
_geom_bond_atom_site_label_1
_geom_bond_atom_site_label_2
_geom_bond_distance
_geom_bond_site_symmetry_2
_ccdc_geom_bond_type
X1     C2      1.540   .     A
X1     H7      1.140   1_544 S
C2     C3      1.540   .     S
C2     H5      1.141   .     S
C3     X4      1.540   .     A
C3     H6      1.140   .     S
X4     H8      1.140   1_544 S
H7     X1      1.140   1_566 S
H8     X4      1.140   1_566 S