data_L_21
_audit_creation_date              2014-10-08
_audit_creation_method            'Materials Studio'
_symmetry_space_group_name_H-M    'P1'
_symmetry_Int_Tables_number       1
_symmetry_cell_setting            triclinic
loop_
_symmetry_equiv_pos_as_xyz
  x,y,z
_cell_length_a                    20.0000
_cell_length_b                    20.0000
_cell_length_c                    20.0000
_cell_angle_alpha                 90.0000
_cell_angle_beta                  90.0000
_cell_angle_gamma                 90.0000
loop_
_atom_site_label
_atom_site_type_symbol
_atom_site_fract_x
_atom_site_fract_y
_atom_site_fract_z
_atom_site_U_iso_or_equiv
_atom_site_adp_type
_atom_site_occupancy
C1     C     0.01106   0.07387   0.00000   0.00000  Uiso   1.00
C2     C     0.04956   0.00719   0.00000   0.00000  Uiso   1.00
C3     C     0.12656   0.00719   0.00000   0.00000  Uiso   1.00
C4     C     0.16506   0.07387   0.00000   0.00000  Uiso   1.00
X5     C     0.12656   0.14055   0.00000   0.00000  Uiso   1.00
C6     C     0.04956   0.14055   0.00000   0.00000  Uiso   1.00
O7     O    -0.06426   0.05786   0.00000   0.00000  Uiso   1.00
C8     C    -0.07231  -0.01872   0.00000   0.00000  Uiso   1.00
C9     C    -0.00197  -0.05004   0.00000   0.00000  Uiso   1.00
C10    C     0.00608  -0.12661   0.00000   0.00000  Uiso   1.00
C11    C    -0.05621  -0.17187   0.00000   0.00000  Uiso   1.00
X12    C    -0.12656  -0.14055   0.00000   0.00000  Uiso   1.00
C13    C    -0.13460  -0.06398   0.00000   0.00000  Uiso   1.00
H14    H     0.15506  -0.04217   0.00000   0.00000  Uiso   1.00
H15    H     0.22206   0.07387   0.00000   0.00000  Uiso   1.00
H16    H     0.02106   0.18991  -0.00000   0.00000  Uiso   1.00
H17    H     0.05815  -0.14979  -0.00000   0.00000  Uiso   1.00
H18    H    -0.05025  -0.22856  -0.00000   0.00000  Uiso   1.00
H19    H    -0.18667  -0.04080   0.00000   0.00000  Uiso   1.00
loop_
_geom_bond_atom_site_label_1
_geom_bond_atom_site_label_2
_geom_bond_distance
_geom_bond_site_symmetry_2
_ccdc_geom_bond_type
C1     C2      1.540   .     A
C1     C6      1.540   .     A
C1     O7      1.540   .     A
C2     C3      1.540   .     A
C2     C9      1.540   .     A
C3     C4      1.540   .     A
C3     H14     1.140   .     S
C4     X5      1.540   .     A
C4     H15     1.140   .     S
X5     C6      1.540   .     A
C6     H16     1.140   .     S
O7     C8      1.540   .     A
C8     C9      1.540   .     A
C8     C13     1.540   .     A
C9     C10     1.540   .     A
C10    C11     1.540   .     A
C10    H17     1.140   .     S
C11    X12     1.540   .     A
C11    H18     1.140   .     S
X12    C13     1.540   .     A
C13    H19     1.140   .     S