data_L_27
_audit_creation_date              2014-09-12
_audit_creation_method            'Materials Studio'
_symmetry_space_group_name_H-M    'P1'
_symmetry_Int_Tables_number       1
_symmetry_cell_setting            triclinic
loop_
_symmetry_equiv_pos_as_xyz
  x,y,z
_cell_length_a                    20.0000
_cell_length_b                    20.0000
_cell_length_c                    20.0000
_cell_angle_alpha                 90.0000
_cell_angle_beta                  90.0000
_cell_angle_gamma                 90.0000
loop_
_atom_site_label
_atom_site_type_symbol
_atom_site_fract_x
_atom_site_fract_y
_atom_site_fract_z
_atom_site_U_iso_or_equiv
_atom_site_adp_type
_atom_site_occupancy
X1     C    -0.19241   0.00542   0.00093   0.00000  Uiso   1.00
C2     C    -0.11546   0.00355   0.00061   0.00000  Uiso   1.00
C3     C    -0.03844   0.00167   0.00028   0.00000  Uiso   1.00
C4     C     0.03848  -0.00041  -0.00008   0.00000  Uiso   1.00
C5     C     0.11548  -0.00282  -0.00049   0.00000  Uiso   1.00
X6     C     0.19241  -0.00542  -0.00093   0.00000  Uiso   1.00
loop_
_geom_bond_atom_site_label_1
_geom_bond_atom_site_label_2
_geom_bond_distance
_geom_bond_site_symmetry_2
_ccdc_geom_bond_type
X1     C2      1.539   .     T
C2     C3      1.541   .     S
C3     C4      1.539   .     T
C4     C5      1.541   .     S
C5     X6      1.539   .     T