data_L_30
_audit_creation_date              2014-10-08
_audit_creation_method            'Materials Studio'
_symmetry_space_group_name_H-M    'P1'
_symmetry_Int_Tables_number       1
_symmetry_cell_setting            triclinic
loop_
_symmetry_equiv_pos_as_xyz
  x,y,z
_cell_length_a                    20.0000
_cell_length_b                    20.0000
_cell_length_c                    20.0000
_cell_angle_alpha                 90.0000
_cell_angle_beta                  90.0000
_cell_angle_gamma                 90.0000
loop_
_atom_site_label
_atom_site_type_symbol
_atom_site_fract_x
_atom_site_fract_y
_atom_site_fract_z
_atom_site_U_iso_or_equiv
_atom_site_adp_type
_atom_site_occupancy
X1     C   -0.06539   0.19104   0.00001   0.00000  Uiso   1.00
C2     C     0.00091   0.15185   0.00000   0.00000  Uiso   1.00
C3     C     0.00034   0.07479   0.00001   0.00000  Uiso   1.00
N4     N     0.06550   0.03661   0.00000   0.00000  Uiso   1.00
N5     N     0.06514  -0.03742   0.00000   0.00000  Uiso   1.00
C6     C    -0.00043  -0.07487   0.00001   0.00000  Uiso   1.00
N7     N    -0.06560  -0.03670   0.00002   0.00000  Uiso   1.00
N8     N    -0.06524   0.03734   0.00002   0.00000  Uiso   1.00
C9     C    -0.00095  -0.15192   0.00001   0.00000  Uiso   1.00
X10    C    0.06539  -0.19104  -0.00001   0.00000  Uiso   1.00
H11    H     0.05054   0.17992  -0.00001   0.00000  Uiso   1.00
H12    H    -0.05056  -0.18005   0.00002   0.00000  Uiso   1.00
H13    H     0.88289   1.16709   1.00001   0.00000  Uiso   1.00
H14    H     1.11583   0.83551   0.99999   0.00000  Uiso   1.00
loop_
_geom_bond_atom_site_label_1
_geom_bond_atom_site_label_2
_geom_bond_distance
_geom_bond_site_symmetry_2
_ccdc_geom_bond_type
X1    C2      1.540   .     A
X1    H13     1.140   1_444 S
C2     C3      1.541   .     S
C2     H11     1.140   .     S
C3     N4      1.510   .     A
C3     N8      1.510   .     A
N4     N5      1.481   .     A
N5     C6      1.510   .     A
C6     N7      1.511   .     A
C6     C9      1.541   .     S
N7     N8      1.481   .     A
C9     X10    1.540   .     A
C9     H12     1.141   .     S
X10    H14     1.140   1_444 S
H13    X1     1.140   1_666 S
H14    X10    1.140   1_666 S