data_L_33
_audit_creation_date              2014-09-12
_audit_creation_method            'Materials Studio'
_symmetry_space_group_name_H-M    'P1'
_symmetry_Int_Tables_number       1
_symmetry_cell_setting            triclinic
loop_
_symmetry_equiv_pos_as_xyz
  x,y,z
_cell_length_a                    20.0000
_cell_length_b                    20.0000
_cell_length_c                    20.0000
_cell_angle_alpha                 90.0000
_cell_angle_beta                  90.0000
_cell_angle_gamma                 90.0000
loop_
_atom_site_label
_atom_site_type_symbol
_atom_site_fract_x
_atom_site_fract_y
_atom_site_fract_z
_atom_site_U_iso_or_equiv
_atom_site_adp_type
_atom_site_occupancy
C1     C    -0.01522   0.06250  -0.03222   0.00000  Uiso   1.00
C2     C     0.01953   0.00970  -0.07619   0.00000  Uiso   1.00
C3     C     0.03567  -0.05720  -0.04166   0.00000  Uiso   1.00
C4     C     0.01488  -0.06255   0.03228   0.00000  Uiso   1.00
C5     C    -0.05959  -0.04309   0.03016   0.00000  Uiso   1.00
C6     C    -0.07570   0.02383  -0.00435   0.00000  Uiso   1.00
C7     C     0.03148   0.06676   0.02886   0.00000  Uiso   1.00
C8     C     0.04758  -0.00016   0.06337   0.00000  Uiso   1.00
C9     C    -0.03127   0.12942  -0.06675   0.00000  Uiso   1.00
X10    C    -0.04725   0.19635  -0.10131   0.00000  Uiso   1.00
C11    C     0.03104  -0.12946   0.06679   0.00000  Uiso   1.00
X12    C     0.04725  -0.19635   0.10131   0.00000  Uiso   1.00
H13    H     0.03165   0.02146  -0.13063   0.00000  Uiso   1.00
H14    H     0.06142  -0.09885  -0.07084   0.00000  Uiso   1.00
H15    H    -0.09871  -0.07750   0.05329   0.00000  Uiso   1.00
H16    H    -0.12968   0.04177  -0.00796   0.00000  Uiso   1.00
H17    H     0.05174   0.11728   0.04577   0.00000  Uiso   1.00
H18    H     0.08180  -0.00121   0.10895   0.00000  Uiso   1.00
loop_
_geom_bond_atom_site_label_1
_geom_bond_atom_site_label_2
_geom_bond_distance
_geom_bond_site_symmetry_2
_ccdc_geom_bond_type
C1     C2      1.540   .     S
C1     C6      1.540   .     S
C1     C7      1.540   .     S
C1     C9      1.540   .     S
C2     C3      1.540   .     D
C2     H13     1.140   .     S
C3     C4      1.540   .     S
C3     H14     1.140   .     S
C4     C5      1.540   .     S
C4     C8      1.540   .     S
C4     C11     1.540   .     S
C5     C6      1.540   .     D
C5     H15     1.140   .     S
C6     H16     1.140   .     S
C7     C8      1.540   .     D
C7     H17     1.140   .     S
C8     H18     1.140   .     S
C9     X10     1.540   .     T
C11    X12     1.540   .     T