data_sym_8_mc_9
_audit_creation_date              2014-09-12
_audit_creation_method            'Materials Studio'
_symmetry_space_group_name_H-M    'P1'
_symmetry_Int_Tables_number       1
_symmetry_cell_setting            triclinic
loop_
_symmetry_equiv_pos_as_xyz
  x,y,z
_cell_length_a                    20.0000
_cell_length_b                    20.0000
_cell_length_c                    20.0000
_cell_angle_alpha                 90.0000
_cell_angle_beta                  90.0000
_cell_angle_gamma                 90.0000
loop_
_atom_site_label
_atom_site_type_symbol
_atom_site_fract_x
_atom_site_fract_y
_atom_site_fract_z
_atom_site_U_iso_or_equiv
_atom_site_adp_type
_atom_site_occupancy
O1     O     0.08996  -0.13001  -0.11891   0.00000  Uani   1.00
O2     O     0.17192  -0.05869  -0.05277   0.00000  Uani   1.00
X3     C     0.15484  -0.10498  -0.10381   0.00000  Uani   1.00
O4     O    -0.08997   0.11827  -0.13060   0.00000  Uani   1.00
O5     O    -0.17192   0.05347  -0.05805   0.00000  Uani   1.00
X6     C    -0.15485   0.09477  -0.11321   0.00000  Uani   1.00
O7     O     0.08996   0.11827  -0.13060   0.00000  Uani   1.00
O8     O     0.17192   0.05347  -0.05805   0.00000  Uani   1.00
X9     C     0.15484   0.09477  -0.11321   0.00000  Uani   1.00
O10    O    -0.08997  -0.13001  -0.11891   0.00000  Uani   1.00
O11    O    -0.17192  -0.05869  -0.05277   0.00000  Uani   1.00
X12    C    -0.15485  -0.10498  -0.10381   0.00000  Uani   1.00
Zr13   Zr    0.00000  -0.08721  -0.07915   0.00000  Uani   1.00
O14    O     0.00000  -0.08536  -0.18435   0.00000  Uani   1.00
O15    O     0.00000  -0.19159  -0.06609   0.00000  Uani   1.00
Zr16   Zr    0.00000   0.07939  -0.08699   0.00000  Uani   1.00
O17    O     0.00000   0.06767  -0.19155   0.00000  Uani   1.00
O18    O     0.00000   0.18454  -0.08379   0.00000  Uani   1.00
O19    O     0.06076  -0.00455  -0.09668   0.00210  Uiso   0.50
O20    O    -0.06076  -0.00455  -0.09668   0.00210  Uiso   0.50
O21    O    -0.08997  -0.11827   0.13060   0.00000  Uani   1.00
O22    O    -0.17192  -0.05347   0.05805   0.00000  Uani   1.00
X23    C    -0.15485  -0.09477   0.11321   0.00000  Uani   1.00
O24    O     0.08996   0.13001   0.11891   0.00000  Uani   1.00
O25    O     0.17192   0.05869   0.05277   0.00000  Uani   1.00
X26    C     0.15484   0.10498   0.10381   0.00000  Uani   1.00
O27    O    -0.08997   0.13001   0.11891   0.00000  Uani   1.00
O28    O    -0.17192   0.05869   0.05277   0.00000  Uani   1.00
X29    C    -0.15485   0.10498   0.10381   0.00000  Uani   1.00
O30    O     0.08996  -0.11827   0.13060   0.00000  Uani   1.00
O31    O     0.17192  -0.05347   0.05805   0.00000  Uani   1.00
X32    C     0.15484  -0.09477   0.11321   0.00000  Uani   1.00
Zr33   Zr    0.00000  -0.07939   0.08699   0.00000  Uani   1.00
O34    O     0.00000  -0.06767   0.19155   0.00000  Uani   1.00
O35    O     0.00000  -0.18454   0.08379   0.00000  Uani   1.00
Zr36   Zr    0.00000   0.08721   0.07915   0.00000  Uani   1.00
O37    O     0.00000   0.08536   0.18435   0.00000  Uani   1.00
O38    O     0.00000   0.19159   0.06609   0.00000  Uani   1.00
Zr39   Zr    0.09976   0.00000   0.00000   0.00000  Uani   1.00
Zr40   Zr   -0.09977   0.00000   0.00000   0.00000  Uani   1.00
O41    O    -0.06076   0.00455   0.09668   0.00210  Uiso   0.50
O42    O     0.06076   0.00455   0.09668   0.00210  Uiso   0.50
O43    O    -0.06129  -0.09691   0.00456   0.00560  Uiso   1.00
O44    O     0.06129   0.09691  -0.00456   0.00560  Uiso   1.00
O45    O     0.06129  -0.09691   0.00456   0.00560  Uiso   1.00
O46    O    -0.06129   0.09691  -0.00456   0.00560  Uiso   1.00
H47    H    -0.09007  -0.00676  -0.14374   0.00000  Uiso   1.00
H48    H     0.09165   0.14322  -0.00674   0.00000  Uiso   1.00
H49    H    -0.09007   0.00676   0.14374   0.00000  Uiso   1.00
H50    H     0.09165  -0.14322   0.00674   0.00000  Uiso   1.00
H51    H     0.00004   0.22250  -0.04331   0.00000  Uiso   1.00
H52    H    -0.00022   0.23134   0.02736   0.00000  Uiso   1.00
H53    H     0.00022   0.04976   0.22693   0.00000  Uiso   1.00
H54    H     0.00005  -0.03055   0.23281   0.00000  Uiso   1.00
H55    H    -0.00007  -0.21754   0.03917   0.00000  Uiso   1.00
H56    H     0.00022  -0.21905  -0.01786   0.00000  Uiso   1.00
H57    H    -0.00020  -0.03688  -0.21137   0.00000  Uiso   1.00
H58    H    -0.00001   0.02475  -0.22673   0.00000  Uiso   1.00
loop_
_geom_bond_atom_site_label_1
_geom_bond_atom_site_label_2
_geom_bond_distance
_geom_bond_site_symmetry_2
_ccdc_geom_bond_type
O1     Zr13    2.145   .     S
O1     X3      1.423   .     D
O2     Zr39    2.139   .     S
O2     X3      1.420   .     S
O4     Zr16    2.146   .     S
O4     X6      1.423   .     S
O5     Zr40    2.139   .     S
O5     X6      1.420   .     D
O7     Zr16    2.145   .     S
O7     X9      1.423   .     S
O8     Zr39    2.139   .     S
O8     X9      1.420   .     D
O10    Zr13    2.145   .     S
O10    X12     1.423   .     D
O11    Zr40    2.139   .     S
O11    X12     1.420   .     S
Zr13   Zr39    3.087   .     S
Zr13   Zr40    3.087   .     S
Zr13   O14     2.104   .     S
Zr13   O15     2.104   .     S
Zr13   O19     2.082   .     S
Zr13   O20     2.082   .     S
Zr13   O43     2.084   .     S
Zr13   O45     2.084   .     S
O14    H57     1.110   .     S
O15    H56     1.110   .     S
Zr16   Zr40    3.087   .     S
Zr16   Zr39    3.087   .     S
Zr16   O17     2.104   .     S
Zr16   O18     2.104   .     S
Zr16   O20     2.081   .     S
Zr16   O19     2.081   .     S
Zr16   O44     2.084   .     S
Zr16   O46     2.084   .     S
O17    H58     1.110   .     S
O18    H51     1.110   .     S
O19    Zr39    2.087   .     S
O20    Zr40    2.087   .     S
O20    H47     1.110   .     S
O21    Zr33    2.146   .     S
O21    X23     1.423   .     D
O22    Zr40    2.139   .     S
O22    X23     1.420   .     S
O24    Zr36    2.145   .     S
O24    X26     1.423   .     S
O25    Zr39    2.139   .     S
O25    X26     1.420   .     D
O27    Zr36    2.145   .     S
O27    X29     1.423   .     S
O28    Zr40    2.139   .     S
O28    X29     1.420   .     D
O30    Zr33    2.145   .     S
O30    X32     1.423   .     D
O31    Zr39    2.139   .     S
O31    X32     1.420   .     S
Zr33   Zr40    3.087   .     S
Zr33   Zr39    3.087   .     S
Zr33   O34     2.104   .     S
Zr33   O35     2.104   .     S
Zr33   O41     2.081   .     S
Zr33   O42     2.081   .     S
Zr33   O45     2.084   .     S
Zr33   O43     2.084   .     S
O34    H54     1.110   .     S
O35    H55     1.110   .     S
Zr36   Zr39    3.087   .     S
Zr36   Zr40    3.087   .     S
Zr36   O37     2.104   .     S
Zr36   O38     2.104   .     S
Zr36   O42     2.082   .     S
Zr36   O41     2.082   .     S
Zr36   O46     2.084   .     S
Zr36   O44     2.084   .     S
O37    H53     1.110   .     S
O38    H52     1.110   .     S
Zr39   O42     2.087   .     S
Zr39   O44     2.087   .     S
Zr39   O45     2.087   .     S
Zr40   O41     2.087   .     S
Zr40   O43     2.087   .     S
Zr40   O46     2.087   .     S
O41    H49     1.110   .     S
O44    H48     1.108   .     S
O45    H50     1.108   .     S