data_sym_3_mc_12_qzw
_audit_creation_date              2017-10-20
_audit_creation_method            'Materials Studio'
_symmetry_space_group_name_H-M    'P1'
_symmetry_Int_Tables_number       1
_symmetry_cell_setting            triclinic
loop_
_symmetry_equiv_pos_as_xyz
  x,y,z
_cell_length_a                    20.0000
_cell_length_b                    20.0000
_cell_length_c                    20.0000
_cell_angle_alpha                 90.0000
_cell_angle_beta                  90.0000
_cell_angle_gamma                 90.0000
loop_
_atom_site_label
_atom_site_type_symbol
_atom_site_fract_x
_atom_site_fract_y
_atom_site_fract_z
_atom_site_U_iso_or_equiv
_atom_site_adp_type
_atom_site_occupancy
C1     C    -0.01925   0.03334   0.00000   0.00000  Uiso   1.00
C2     C     0.01925  -0.03334   0.00000   0.00000  Uiso   1.00
C3     C    -0.09625   0.03334   0.00000   0.00000  Uiso   1.00
X4     C    -0.13475  -0.03334   0.00000   0.00000  Uiso   1.00
C5     C    -0.09625  -0.10003   0.00000   0.00000  Uiso   1.00
C6     C    -0.01925  -0.10003   0.00000   0.00000  Uiso   1.00
H7     H    -0.12475   0.08270   0.00000   0.00000  Uiso   1.00
H8     H     0.00925  -0.14939   0.00000   0.00000  Uiso   1.00
X9     N     0.03227   0.09056   0.00000   0.00000  Uiso   1.00
C10    C     0.10261   0.05925   0.00000   0.00000  Uiso   1.00
X11    N     0.09456  -0.01733   0.00000   0.00000  Uiso   1.00
H12    H     0.14872   0.09275   0.00000   0.00000  Uiso   1.00
H13    H    -0.12475  -0.14939   0.00000   0.00000  Uiso   1.00
loop_
_geom_bond_atom_site_label_1
_geom_bond_atom_site_label_2
_geom_bond_distance
_geom_bond_site_symmetry_2
_ccdc_geom_bond_type
C1     C2      1.540   .     A
C1     C3      1.540   .     A
C1     C9      1.540   .     A
C2     C6      1.540   .     A
C2     X11     1.540   .     A
C3     X4      1.540   .     A
X4     C5      1.540   .     A
C5     C6      1.540   .     A
X9     C10     1.540   .     A
X9     C1      1.540   .     A
C10    X11     1.540   .     A
C10    H12     1.140   .     S
H7     C3      1.140   .     S
H8     C6      1.140   .     S
C5     H13     1.110   .     S