data_sym_3_mc_0
_audit_creation_date              2014-09-12
_audit_creation_method            'Materials Studio'
_symmetry_space_group_name_H-M    'P1'
_symmetry_Int_Tables_number       1
_symmetry_cell_setting            triclinic
loop_
_symmetry_equiv_pos_as_xyz
  x,y,z
_cell_length_a                    20.0000
_cell_length_b                    20.0000
_cell_length_c                    20.0000
_cell_angle_alpha                 90.0000
_cell_angle_beta                  90.0000
_cell_angle_gamma                 90.0000
loop_
_atom_site_label
_atom_site_type_symbol
_atom_site_fract_x
_atom_site_fract_y
_atom_site_fract_z
_atom_site_U_iso_or_equiv
_atom_site_adp_type
_atom_site_occupancy
N1     N    -0.13159   0.04029  -0.00144   0.00000  Uiso   1.00
N2     N    -0.09814   0.09664  -0.00196   0.00000  Uiso   1.00
N3     N    -0.14204   0.14762  -0.00272   0.00000  Uiso   1.00
X4     C    -0.20671   0.12282  -0.00269   0.00000  Uiso   1.00
N5     N    -0.19734   0.05421  -0.00185   0.00000  Uiso   1.00
Cu6    Cu   -0.00089   0.09751  -0.00160   0.00000  Uiso   1.00
Cu7    Cu   -0.08752  -0.04653  -0.00026   0.00000  Uiso   1.00
Cu8    Cu    0.08594  -0.04640   0.00040   0.00000  Uiso   1.00
N9     N     0.09636   0.09679  -0.00122   0.00000  Uiso   1.00
N10    N     0.12988   0.04049  -0.00044   0.00000  Uiso   1.00
N11    N     0.19562   0.05451  -0.00035   0.00000  Uiso   1.00
X12    C     0.20489   0.12313  -0.00111   0.00000  Uiso   1.00
N13    N     0.14018   0.14783  -0.00164   0.00000  Uiso   1.00
N14    N     0.03218  -0.12896   0.00116   0.00000  Uiso   1.00
N15    N    -0.03363  -0.12901   0.00090   0.00000  Uiso   1.00
N16    N    -0.05493  -0.19282   0.00156   0.00000  Uiso   1.00
X17    C    -0.00065  -0.23575   0.00227   0.00000  Uiso   1.00
N18    N     0.05356  -0.19274   0.00198   0.00000  Uiso   1.00
loop_
_geom_bond_atom_site_label_1
_geom_bond_atom_site_label_2
_geom_bond_distance
_geom_bond_site_symmetry_2
_ccdc_geom_bond_type
N1     N2      1.311   .     A
N1     N5      1.344   .     A
N1     Cu7     1.947   .     S
N2     N3      1.346   .     A
N2     Cu6     1.945   .     S
N3     X4      1.385   .     A
X4     N5      1.385   .     A
Cu6    N9      1.945   .     S
Cu7    N15     1.971   .     S
Cu8    N10     1.947   .     S
Cu8    N14     1.970   .     S
N9     N10     1.311   .     A
N9     N13     1.345   .     A
N10    N11     1.344   .     A
N11    X12     1.385   .     A
X12    N13     1.385   .     A
N14    N15     1.316   .     A
N14    N18     1.345   .     A
N15    N16     1.345   .     A
N16    X17     1.384   .     A
X17    N18     1.384   .     A