data_sym_9_mc_5
_audit_creation_date              2014-09-12
_audit_creation_method            'Materials Studio'
_symmetry_space_group_name_H-M    'P1'
_symmetry_Int_Tables_number       1
_symmetry_cell_setting            triclinic
loop_
_symmetry_equiv_pos_as_xyz
  x,y,z
_cell_length_a                    25.0000
_cell_length_b                    25.0000
_cell_length_c                    25.0000
_cell_angle_alpha                 90.0000
_cell_angle_beta                  90.0000
_cell_angle_gamma                 90.0000
loop_
_atom_site_label
_atom_site_type_symbol
_atom_site_fract_x
_atom_site_fract_y
_atom_site_fract_z
_atom_site_U_iso_or_equiv
_atom_site_adp_type
_atom_site_occupancy
O1     O    -0.06827  -0.00477   0.14611   0.00000  Uani   1.00
O2     O    -0.04321   0.09948   0.12207   0.00000  Uani   0.50
O3     O    -0.14611  -0.06827   0.00477   0.00000  Uani   1.00
O4     O    -0.12207  -0.04321  -0.09948   0.00000  Uani   0.50
O5     O    -0.00477  -0.14611   0.06827   0.00000  Uani   1.00
O6     O     0.09948  -0.12207   0.04321   0.00000  Uani   0.50
O7     O     0.00477   0.06827  -0.14611   0.00000  Uani   1.00
O8     O    -0.09948   0.04321  -0.12207   0.00000  Uani   0.50
O9     O     0.06827   0.14611  -0.00477   0.00000  Uani   1.00
O10    O     0.04321   0.12207   0.09948   0.00000  Uani   0.50
O11    O     0.14611   0.00477  -0.06827   0.00000  Uani   1.00
O12    O     0.12207  -0.09948  -0.04321   0.00000  Uani   0.50
O13    O     0.06827   0.00477  -0.14611   0.00000  Uani   1.00
O14    O     0.04321  -0.09948  -0.12207   0.00000  Uani   0.50
O15    O     0.14611   0.06827  -0.00477   0.00000  Uani   1.00
O16    O     0.12207   0.04321   0.09948   0.00000  Uani   0.50
O17    O     0.00477   0.14611  -0.06827   0.00000  Uani   1.00
O18    O    -0.09948   0.12207  -0.04321   0.00000  Uani   0.50
O19    O    -0.00477  -0.06827   0.14611   0.00000  Uani   1.00
O20    O     0.09948  -0.04321   0.12207   0.00000  Uani   0.50
O21    O    -0.06827  -0.14611   0.00477   0.00000  Uani   1.00
O22    O    -0.04321  -0.12207  -0.09948   0.00000  Uani   0.50
O23    O    -0.14611  -0.00477   0.06827   0.00000  Uani   1.00
O24    O    -0.12207   0.09948   0.04321   0.00000  Uani   0.50
Zr25   Zr   -0.06600   0.03282   0.06600   0.00000  Uani   1.00
O26    O    -0.02172   0.09203   0.02172   0.00000  Uani   0.50
Zr27   Zr   -0.06600  -0.06600  -0.03282   0.00000  Uani   1.00
O28    O    -0.02172  -0.02172  -0.09203   0.00000  Uani   0.50
Zr29   Zr    0.03282  -0.06600   0.06600   0.00000  Uani   1.00
O30    O     0.09203  -0.02172   0.02172   0.00000  Uani   0.50
Zr31   Zr   -0.03282   0.06600  -0.06600   0.00000  Uani   1.00
O32    O    -0.09203   0.02172  -0.02172   0.00000  Uani   0.50
Zr33   Zr    0.06600   0.06600   0.03282   0.00000  Uani   1.00
O34    O     0.02172   0.02172   0.09203   0.00000  Uani   0.50
Zr35   Zr    0.06600  -0.03282  -0.06600   0.00000  Uani   1.00
O36    O     0.02172  -0.09203  -0.02172   0.00000  Uani   0.50
O37    O    -0.05514  -0.05514   0.05514   0.00000  Uani   0.50
O38    O     0.05514   0.05514  -0.05514   0.00000  Uani   0.50
X39    C    -0.04390  -0.04390   0.16636   0.00000  Uani   1.00
X40    C    -0.16636  -0.04390   0.04390   0.00000  Uani   1.00
X41    C    -0.04390  -0.16636   0.04390   0.00000  Uani   1.00
X42    C     0.04390   0.04390  -0.16636   0.00000  Uani   1.00
X43    C     0.04390   0.16636  -0.04390   0.00000  Uani   1.00
X44    C     0.16636   0.04390  -0.04390   0.00000  Uani   1.00
H45    H    -0.02969   0.13004   0.02969   0.00000  Uiso   1.00
H46    H     0.13004  -0.02969   0.02969   0.00000  Uiso   1.00
H47    H    -0.07791  -0.07791   0.07791   0.00000  Uiso   1.00
H48    H    -0.02969  -0.02969  -0.13004   0.00000  Uiso   1.00
H49    H    -0.14096   0.02765  -0.12495   0.00000  Uiso   1.00
H50    H    -0.13938  -0.01344  -0.12751   0.00000  Uiso   1.00
H51    H     0.14256   0.01721   0.12907   0.00000  Uiso   1.00
H52    H     0.13139  -0.02142   0.14394   0.00000  Uiso   1.00
H53    H    -0.12942   0.14048  -0.01608   0.00000  Uiso   1.00
H54    H    -0.13919   0.13043   0.01637   0.00000  Uiso   1.00
H55    H     0.14234  -0.13177  -0.02044   0.00000  Uiso   1.00
H56    H     0.12972  -0.14119   0.01691   0.00000  Uiso   1.00
H57    H    -0.01297   0.12696   0.13944   0.00000  Uiso   1.00
H58    H     0.01025   0.13454   0.12650   0.00000  Uiso   1.00
H59    H    -0.01658  -0.14020  -0.13003   0.00000  Uiso   1.00
H60    H     0.01840  -0.12908  -0.14397   0.00000  Uiso   1.00
loop_
_geom_bond_atom_site_label_1
_geom_bond_atom_site_label_2
_geom_bond_distance
_geom_bond_site_symmetry_2
_ccdc_geom_bond_type
O1     Zr25    2.213   .     S
O1     X39     1.259   .     A
O2     Zr25    2.251   .     S
O2     H57     1.110   .     S
O3     Zr27    2.213   .     S
O3     X40     1.259   .     A
O4     Zr27    2.251   .     S
O4     H50     1.110   .     S
O5     Zr29    2.213   .     S
O5     X41     1.259   .     A
O6     Zr29    2.251   .     S
O6     H56     1.110   .     S
O7     Zr31    2.213   .     S
O7     X42     1.259   .     A
O8     Zr31    2.251   .     S
O8     H49     1.110   .     S
O9     Zr33    2.213   .     S
O9     X43     1.259   .     A
O10    Zr33    2.251   .     S
O10    H58     1.110   .     S
O11    Zr35    2.213   .     S
O11    X44     1.259   .     A
O12    Zr35    2.251   .     S
O12    H55     1.110   .     S
O13    Zr35    2.213   .     S
O13    X42     1.259   .     A
O14    Zr35    2.251   .     S
O14    H60     1.110   .     S
O15    Zr33    2.213   .     S
O15    X44     1.259   .     A
O16    Zr33    2.251   .     S
O16    H51     1.110   .     S
O17    Zr31    2.213   .     S
O17    X43     1.259   .     A
O18    Zr31    2.251   .     S
O18    H53     1.110   .     S
O19    Zr29    2.213   .     S
O19    X39     1.259   .     A
O20    Zr29    2.251   .     S
O20    H52     1.110   .     S
O21    Zr27    2.213   .     S
O21    X41     1.259   .     A
O22    Zr27    2.251   .     S
O22    H59     1.110   .     S
O23    Zr25    2.213   .     S
O23    X40     1.259   .     A
O24    Zr25    2.251   .     S
O24    H54     1.110   .     S
Zr25   O26     2.155   .     S
Zr25   O37     2.232   .     S
Zr25   O32     2.304   .     S
Zr25   O34     2.304   .     S
O26    Zr31    2.304   .     S
O26    Zr33    2.304   .     S
O26    H45     0.991   .     S
Zr27   O28     2.155   .     S
Zr27   O37     2.232   .     S
Zr27   O36     2.304   .     S
Zr27   O32     2.304   .     S
O28    Zr35    2.304   .     S
O28    Zr31    2.304   .     S
O28    H48     0.991   .     S
Zr29   O30     2.155   .     S
Zr29   O37     2.232   .     S
Zr29   O34     2.304   .     S
Zr29   O36     2.304   .     S
O30    Zr33    2.304   .     S
O30    Zr35    2.304   .     S
O30    H46     0.991   .     S
Zr31   O32     2.155   .     S
Zr31   O38     2.232   .     S
Zr33   O34     2.155   .     S
Zr33   O38     2.232   .     S
Zr35   O36     2.155   .     S
Zr35   O38     2.232   .     S
O37    H47     0.986   .     S