data_sym_16_mc_14
_audit_creation_date              2014-10-04
_audit_creation_method            'Materials Studio'
_symmetry_space_group_name_H-M    'P1'
_symmetry_Int_Tables_number       1
_symmetry_cell_setting            triclinic
loop_
_symmetry_equiv_pos_as_xyz
  x,y,z
_cell_length_a                    20.0000
_cell_length_b                    20.0000
_cell_length_c                    20.0000
_cell_angle_alpha                 90.0000
_cell_angle_beta                  90.0000
_cell_angle_gamma                 90.0000
loop_
_atom_site_label
_atom_site_type_symbol
_atom_site_fract_x
_atom_site_fract_y
_atom_site_fract_z
_atom_site_U_iso_or_equiv
_atom_site_adp_type
_atom_site_occupancy
Zr1    Zr   -0.07177  -0.05068  -0.08763   0.00000  Uiso   1.00
O2     O    -0.15463   0.01123  -0.12970   0.00000  Uiso   1.00
O3     O    -0.04947  -0.15536  -0.11948   0.00000  Uiso   1.00
O4     O    -0.04115  -0.03789  -0.19424   0.00000  Uiso   1.00
O5     O    -0.16600  -0.10141   0.05495   0.00000  Uiso   1.00
O6     O     0.05190   0.02084  -0.19425   0.00000  Uiso   1.00
O7     O    -0.16296  -0.10624  -0.05494   0.00000  Uiso   1.00
O8     O     0.03700  -0.18929  -0.06051   0.00000  Uiso   1.00
O9     O     0.03322  -0.05263  -0.07900   0.00000  Uiso   1.00
O10    O    -0.03849  -0.09287   0.00301   0.00000  Uiso   1.00
O11    O    -0.02868   0.04543  -0.08502   0.00000  Uiso   1.00
O12    O    -0.10039   0.00520  -0.00301   0.00000  Uiso   1.00
Zr13   Zr    0.07177   0.05068   0.08762   0.00000  Uiso   1.00
Zr14   Zr    0.07662   0.04299  -0.08763   0.00000  Uiso   1.00
Zr15   Zr   -0.07662  -0.04299   0.08763   0.00000  Uiso   1.00
Zr16   Zr    0.06615  -0.10479   0.00643   0.00000  Uiso   1.00
O17    O    -0.16153   0.02217   0.11949   0.00000  Uiso   1.00
O18    O     0.15496  -0.11483  -0.06051   0.00000  Uiso   1.00
O19    O     0.02868  -0.04544   0.08502   0.00000  Uiso   1.00
O20    O     0.10039  -0.00520   0.00301   0.00000  Uiso   1.00
O21    O     0.03849   0.09287  -0.00301   0.00000  Uiso   1.00
O22    O    -0.03322   0.05263   0.07900   0.00000  Uiso   1.00
X23    C    -0.00704  -0.19448  -0.10156   0.00000  Uiso   1.00
X24    C    -0.18562  -0.11717   0.00001   0.00000  Uiso   1.00
X25    C     0.00607  -0.00962  -0.21922   0.00000  Uiso   1.00
O26    O     0.16153  -0.02217  -0.11949   0.00000  Uiso   1.00
O27    O     0.16600   0.10141  -0.05495   0.00000  Uiso   1.00
O28    O     0.16296   0.10624   0.05494   0.00000  Uiso   1.00
X29    C     0.18562   0.11717  -0.00000   0.00000  Uiso   1.00
O30    O    -0.15111   0.10871  -0.07879   0.00000  Uiso   1.00
Zr31   Zr   -0.06615   0.10479  -0.00643   0.00000  Uiso   1.00
O32    O     0.04947   0.15536   0.11948   0.00000  Uiso   1.00
O33    O     0.05637   0.14442  -0.12971   0.00000  Uiso   1.00
O34    O    -0.03315   0.18317  -0.07880   0.00000  Uiso   1.00
O35    O    -0.15496   0.11483   0.06051   0.00000  Uiso   1.00
O36    O    -0.03700   0.18929   0.06051   0.00000  Uiso   1.00
X37    C     0.00704   0.19448   0.10156   0.00000  Uiso   1.00
O38    O     0.15463  -0.01123   0.12970   0.00000  Uiso   1.00
O39    O    -0.05637  -0.14442   0.12971   0.00000  Uiso   1.00
O40    O     0.04115   0.03789   0.19424   0.00000  Uiso   1.00
O41    O    -0.05190  -0.02084   0.19425   0.00000  Uiso   1.00
O42    O     0.03315  -0.18317   0.07880   0.00000  Uiso   1.00
O43    O     0.15111  -0.10871   0.07879   0.00000  Uiso   1.00
X44    C    -0.00607   0.00962   0.21922   0.00000  Uiso   1.00
H45    H    -0.05644  -0.13864   0.00629   0.00000  Uiso   1.00
H46    H     0.14955  -0.00958   0.00456   0.00000  Uiso   1.00
H47    H    -0.05140   0.07814   0.11704   0.00000  Uiso   1.00
H48    H    -0.04358   0.06904  -0.12575   0.00000  Uiso   1.00
H49    H     0.17015  -0.16158  -0.05460   0.00000  Uiso   1.00
H50    H     0.18538   0.00420  -0.15394   0.00000  Uiso   1.00
H51    H     0.09204   0.15145  -0.16332   0.00000  Uiso   1.00
H52    H    -0.06191   0.22231  -0.06919   0.00000  Uiso   1.00
H53    H     0.06168  -0.22242   0.06896   0.00000  Uiso   1.00
H54    H    -0.09241  -0.15171   0.16287   0.00000  Uiso   1.00
H55    H    -0.18501  -0.00394   0.15439   0.00000  Uiso   1.00
H56    H    -0.16995   0.16168   0.05486   0.00000  Uiso   1.00
H57    H     0.17047  -0.15396   0.07342   0.00000  Uiso   1.00
H58    H     0.17666   0.01814   0.16292   0.00000  Uiso   1.00
H59    H    -0.17627  -0.01792  -0.16337   0.00000  Uiso   1.00
H60    H    -0.17038   0.15401  -0.07353   0.00000  Uiso   1.00
loop_
_geom_bond_atom_site_label_1
_geom_bond_atom_site_label_2
_geom_bond_distance
_geom_bond_site_symmetry_2
_ccdc_geom_bond_type
Zr1    O2      2.233   .     S
Zr1    O3      2.233   .     S
Zr1    O4      2.233   .     S
Zr1    O7      2.233   .     S
Zr1    O9      2.107   .     S
Zr1    O10     2.107   .     S
Zr1    O11     2.107   .     S
Zr1    O12     2.107   .     S
O2     H59     0.990   .     S
O3     X23     1.209   .     D
O4     X25     1.209   .     D
O5     Zr15    2.233   .     S
O5     X24     1.209   .     D
O6     Zr14    2.233   .     S
O6     X25     1.209   .     S
O7     X24     1.209   .     S
O8     Zr16    2.233   .     S
O8     X23     1.209   .     S
O9     Zr14    2.107   .     S
O9     Zr16    2.107   .     S
O10    Zr15    2.107   .     S
O10    Zr16    2.107   .     S
O10    H45     0.986   .     S
O11    Zr14    2.107   .     S
O11    Zr31    2.107   .     S
O11    H48     0.988   .     S
O12    Zr15    2.107   .     S
O12    Zr31    2.107   .     S
Zr13   O32     2.233   .     S
Zr13   O38     2.233   .     S
Zr13   O40     2.233   .     S
Zr13   O28     2.233   .     S
Zr13   O19     2.107   .     S
Zr13   O20     2.107   .     S
Zr13   O21     2.107   .     S
Zr13   O22     2.107   .     S
Zr14   O33     2.233   .     S
Zr14   O26     2.233   .     S
Zr14   O27     2.233   .     S
Zr14   O20     2.107   .     S
Zr14   O21     2.107   .     S
Zr15   O17     2.233   .     S
Zr15   O39     2.233   .     S
Zr15   O41     2.233   .     S
Zr15   O19     2.107   .     S
Zr15   O22     2.107   .     S
Zr16   O42     2.233   .     S
Zr16   O43     2.233   .     S
Zr16   O18     2.233   .     S
Zr16   O19     2.107   .     S
Zr16   O20     2.107   .     S
O17    H55     0.990   .     S
O18    H49     0.990   .     S
O20    H46     0.988   .     S
O21    Zr31    2.107   .     S
O22    Zr31    2.107   .     S
O22    H47     0.986   .     S
O26    H50     0.990   .     S
O27    X29     1.209   .     D
O28    X29     1.209   .     S
O30    Zr31    2.233   .     S
O30    H60     0.990   .     S
Zr31   O34     2.233   .     S
Zr31   O35     2.233   .     S
Zr31   O36     2.233   .     S
O32    X37     1.209   .     S
O33    H51     0.990   .     S
O34    H52     0.990   .     S
O35    H56     0.990   .     S
O36    X37     1.209   .     D
O38    H58     0.990   .     S
O39    H54     0.990   .     S
O40    X44     1.209   .     S
O41    X44     1.209   .     D
O42    H53     0.990   .     S
O43    H57     0.990   .     S