data_sym_10_mc_10
_audit_creation_date              2014-09-12
_audit_creation_method            'Materials Studio'
_symmetry_space_group_name_H-M    'P1'
_symmetry_Int_Tables_number       1
_symmetry_cell_setting            triclinic
loop_
_symmetry_equiv_pos_as_xyz
  x,y,z
_cell_length_a                    25.0000
_cell_length_b                    25.0000
_cell_length_c                    25.0000
_cell_angle_alpha                 90.0000
_cell_angle_beta                  90.0000
_cell_angle_gamma                 90.0000
loop_
_atom_site_label
_atom_site_type_symbol
_atom_site_fract_x
_atom_site_fract_y
_atom_site_fract_z
_atom_site_U_iso_or_equiv
_atom_site_adp_type
_atom_site_occupancy
X1     C     0.00244  -0.00401   0.17486   0.00000  Uani   1.00
X2     C     0.00027  -0.00401  -0.18226   0.00000  Uani   1.00
X3     C    -0.12748  -0.09394   0.08201   0.00000  Uani   1.00
X4     C    -0.12748   0.08592   0.08201   0.00000  Uani   1.00
X5     C    -0.12851  -0.09394  -0.08784   0.00000  Uani   1.00
X6     C     0.12739  -0.08592  -0.09678   0.00000  Uani   1.00
X7     C     0.12739   0.07789  -0.09678   0.00000  Uani   1.00
X8     C     0.12851  -0.08592   0.08784   0.00000  Uani   1.00
X9     C    -0.12851   0.08592  -0.08784   0.00000  Uani   1.00
X10    C     0.12851   0.07789   0.08784   0.00000  Uani   1.00
O11    O    -0.08121  -0.10576  -0.10057   0.00000  Uani   1.00
O12    O    -0.14417  -0.05918  -0.05512   0.00000  Uani   1.00
O13    O    -0.08121   0.09774  -0.10057   0.00000  Uani   1.00
O14    O    -0.14417   0.05116  -0.05512   0.00000  Uani   1.00
O15    O     0.08144   0.08823   0.10145   0.00000  Uani   1.00
O16    O     0.14385   0.04820   0.04968   0.00000  Uani   1.00
O17    O    -0.00065   0.04229  -0.16018   0.00000  Uani   1.00
O18    O    -0.00065  -0.05031  -0.16018   0.00000  Uani   1.00
O19    O     0.00125   0.04229   0.15279   0.00000  Uani   1.00
O20    O     0.00125  -0.05031   0.15279   0.00000  Uani   1.00
O21    O     0.08016  -0.09625  -0.10981   0.00000  Uani   1.00
O22    O     0.14319  -0.05622  -0.05881   0.00000  Uani   1.00
O23    O    -0.08003  -0.10576   0.09416   0.00000  Uani   1.00
O24    O    -0.14354  -0.05918   0.04948   0.00000  Uani   1.00
O25    O     0.08144  -0.09625   0.10145   0.00000  Uani   1.00
O26    O     0.14385  -0.05622   0.04968   0.00000  Uani   1.00
O27    O     0.08016   0.08823  -0.10981   0.00000  Uani   1.00
O28    O     0.14319   0.04820  -0.05881   0.00000  Uani   1.00
O29    O     0.00433   0.15230   0.06607   0.00000  Uani   1.00
O30    O     0.00348   0.15230  -0.07350   0.00000  Uani   1.00
O31    O     0.00348  -0.16032  -0.07350   0.00000  Uani   1.00
O32    O     0.00433  -0.16032   0.06607   0.00000  Uani   1.00
O33    O    -0.04301  -0.06538  -0.00343   0.00000  Uani   1.00
O34    O    -0.04301   0.05736  -0.00343   0.00000  Uani   1.00
O35    O     0.05309  -0.08567  -0.00401   0.00000  Uani   1.00
O36    O    -0.05528  -0.00401   0.07559   0.00000  Uani   1.00
O37    O    -0.14354   0.05116   0.04948   0.00000  Uani   1.00
O38    O    -0.08003   0.09774   0.09416   0.00000  Uani   1.00
O39    O     0.04183  -0.00401   0.05487   0.00000  Uani   1.00
O40    O     0.04112  -0.00401  -0.06275   0.00000  Uani   1.00
O41    O     0.05309   0.07765  -0.00401   0.00000  Uani   1.00
O42    O    -0.05624  -0.00401  -0.08229   0.00000  Uani   1.00
Zr43   Zr   -0.00010   0.06587   0.06706   0.00000  Uani   1.00
Zr44   Zr   -0.00096  -0.07389  -0.07444   0.00000  Uani   1.00
Zr45   Zr   -0.09860  -0.00401  -0.00309   0.00000  Uani   1.00
Zr46   Zr   -0.00010  -0.07389   0.06706   0.00000  Uani   1.00
Zr47   Zr   -0.00096   0.06587  -0.07444   0.00000  Uani   1.00
Zr48   Zr    0.09779  -0.00401  -0.00428   0.00000  Uani   1.00
H49    H     0.07587  -0.11854  -0.00415   0.01700  Uiso   1.00
H50    H    -0.07842  -0.00401   0.10818   0.01700  Uiso   1.00
H51    H     0.07587   0.11052  -0.00415   0.01700  Uiso   1.00
H52    H    -0.07978  -0.00401  -0.11461   0.01700  Uiso   1.00
H53    H     0.00618   0.17709   0.02928   0.00000  Uiso   1.00
H54    H     0.00433   0.18220  -0.04069   0.00000  Uiso   1.00
H55    H     0.00351  -0.18987   0.03294   0.00000  Uiso   1.00
H56    H     0.00187  -0.17864  -0.03309   0.00000  Uiso   1.00
loop_
_geom_bond_atom_site_label_1
_geom_bond_atom_site_label_2
_geom_bond_distance
_geom_bond_site_symmetry_2
_ccdc_geom_bond_type
X1     O20     1.283   .     D
X1     O19     1.283   .     S
X2     O17     1.283   .     S
X2     O18     1.283   .     D
X3     O24     1.256   .     D
X3     O23     1.260   .     S
X4     O37     1.256   .     S
X4     O38     1.260   .     D
X5     O12     1.256   .     S
X5     O11     1.260   .     D
X6     O22     1.268   .     D
X6     O21     1.252   .     S
X7     O28     1.268   .     S
X7     O27     1.252   .     D
X8     O26     1.268   .     D
X8     O25     1.252   .     S
X9     O14     1.256   .     S
X9     O13     1.260   .     D
X10    O15     1.252   .     S
X10    O16     1.268   .     D
O11    Zr44    2.255   .     S
O12    Zr45    2.212   .     S
O13    Zr47    2.255   .     S
O14    Zr45    2.212   .     S
O15    Zr43    2.282   .     S
O16    Zr48    2.202   .     S
O17    Zr47    2.223   .     S
O18    Zr44    2.223   .     S
O19    Zr43    2.223   .     S
O20    Zr46    2.223   .     S
O21    Zr44    2.282   .     S
O22    Zr48    2.202   .     S
O23    Zr46    2.255   .     S
O24    Zr45    2.212   .     S
O25    Zr46    2.282   .     S
O26    Zr48    2.202   .     S
O27    Zr47    2.282   .     S
O28    Zr48    2.202   .     S
O29    Zr43    2.164   .     S
O29    H53     1.110   .     S
O30    Zr47    2.164   .     S
O30    H54     1.110   .     S
O31    Zr44    2.164   .     S
O31    H56     1.110   .     S
O32    Zr46    2.164   .     S
O32    H55     1.110   .     S
O33    Zr44    2.074   .     S
O33    Zr45    2.070   .     S
O33    Zr46    2.074   .     S
O34    Zr43    2.074   .     S
O34    Zr45    2.070   .     S
O34    Zr47    2.074   .     S
O35    Zr44    2.239   .     S
O35    Zr46    2.239   .     S
O35    Zr48    2.327   .     S
O35    H49     1.000   .     S
O36    Zr43    2.236   .     S
O36    Zr45    2.245   .     S
O36    Zr46    2.236   .     S
O36    H50     0.999   .     S
O37    Zr45    2.212   .     S
O38    Zr43    2.255   .     S
O39    Zr43    2.060   .     S
O39    Zr46    2.060   .     S
O39    Zr48    2.036   .     S
O40    Zr44    2.060   .     S
O40    Zr47    2.060   .     S
O40    Zr48    2.036   .     S
O41    Zr43    2.239   .     S
O41    Zr47    2.239   .     S
O41    Zr48    2.327   .     S
O41    H51     1.000   .     S
O42    Zr44    2.236   .     S
O42    Zr45    2.245   .     S
O42    Zr47    2.236   .     S
O42    H52     1.000   .     S