data_L_10 
_audit_creation_date              2014-09-12
_audit_creation_method            'Materials Studio'
_symmetry_space_group_name_H-M    'P1'
_symmetry_Int_Tables_number       1
_symmetry_cell_setting            triclinic
loop_
_symmetry_equiv_pos_as_xyz
  x,y,z
_cell_length_a                    15.0000
_cell_length_b                    15.0000
_cell_length_c                    15.0000
_cell_angle_alpha                 90.0000
_cell_angle_beta                  90.0000
_cell_angle_gamma                 90.0000
loop_
_atom_site_label
_atom_site_type_symbol
_atom_site_fract_x
_atom_site_fract_y
_atom_site_fract_z
_atom_site_U_iso_or_equiv
_atom_site_adp_type
_atom_site_occupancy
C1     C    -0.09786   0.00841  -0.00584   0.00000  Uiso   1.00
X2     C    -0.05473  -0.08690   0.00466   0.00000  Uiso   1.00
C3     C     0.04802  -0.09080   0.00996   0.00000  Uiso   1.00
C4     C     0.10300  -0.00351   0.00531   0.00000  Uiso   1.00
X5     C     0.05473   0.08690  -0.00466   0.00000  Uiso   1.00
C6     C    -0.04993   0.08775  -0.01465   0.00000  Uiso   1.00
C7     C    -0.12354   0.14231   0.02383   0.00000  Uiso   1.00
C8     C    -0.18043   0.05197   0.02868   0.00000  Uiso   1.00
H9     H     0.08318  -0.15779   0.01728   0.00000  Uiso   1.00
H10    H     0.17886  -0.00611   0.00923   0.00000  Uiso   1.00
H11    H    -0.15203   0.19244  -0.02568   0.00000  Uiso   1.00
H12    H    -0.09993   0.17480   0.08835   0.00000  Uiso   1.00
H13    H    -0.23796   0.05031  -0.02095   0.00000  Uiso   1.00
H14    H    -0.20257   0.03980   0.10036   0.00000  Uiso   1.00
loop_
_geom_bond_atom_site_label_1
_geom_bond_atom_site_label_2
_geom_bond_distance
_geom_bond_site_symmetry_2
_ccdc_geom_bond_type
C1     X2      1.577   .     A
C1     C6      1.397   .     A
C1     C8      1.493   .     S
X2     C3      1.544   .     A
C3     C4      1.549   .     A
C3     H9      1.140   .     S
C4     X5      1.545   .     A
C4     H10     1.140   .     S
X5     C6      1.577   .     A
C6     C7      1.491   .     S
C7     C8      1.603   .     S
C7     H11     1.140   .     S
C7     H12     1.140   .     S
C8     H13     1.140   .     S
C8     H14     1.140   .     S