data_L_18 
_audit_creation_date              2014-09-12
_audit_creation_method            'Materials Studio'
_symmetry_space_group_name_H-M    'P1'
_symmetry_Int_Tables_number       1
_symmetry_cell_setting            triclinic
loop_
_symmetry_equiv_pos_as_xyz
  x,y,z
_cell_length_a                    20.0000
_cell_length_b                    20.0000
_cell_length_c                    20.0000
_cell_angle_alpha                 90.0000
_cell_angle_beta                  90.0000
_cell_angle_gamma                 90.0000
loop_
_atom_site_label
_atom_site_type_symbol
_atom_site_fract_x
_atom_site_fract_y
_atom_site_fract_z
_atom_site_U_iso_or_equiv
_atom_site_adp_type
_atom_site_occupancy
C1     C    -0.01925   0.03334  -0.00000   0.00000  Uiso   1.00
C2     C     0.01925  -0.03334  -0.00000   0.00000  Uiso   1.00
N3     N     0.09625  -0.03334  -0.00000   0.00000  Uiso   1.00
C4     C     0.13475   0.03334  -0.00000   0.00000  Uiso   1.00
X5     C     0.09625   0.10003  -0.00000   0.00000  Uiso   1.00
N6     N     0.01925   0.10003  -0.00000   0.00000  Uiso   1.00
N7     N    -0.09625   0.03334   0.00000   0.00000  Uiso   1.00
C8     C    -0.13475  -0.03334   0.00000   0.00000  Uiso   1.00
X9     C    -0.09625  -0.10003   0.00000   0.00000  Uiso   1.00
N10    N    -0.01925  -0.10003   0.00000   0.00000  Uiso   1.00
H11    H     0.19175   0.03334  -0.00000   0.00000  Uiso   1.00
H12    H    -0.19175  -0.03334   0.00000   0.00000  Uiso   1.00
loop_
_geom_bond_atom_site_label_1
_geom_bond_atom_site_label_2
_geom_bond_distance
_geom_bond_site_symmetry_2
_ccdc_geom_bond_type
C1     C2      1.540   .     A
C1     N6      1.540   .     A
C1     N7      1.540   .     A
C2     N3      1.540   .     A
C2     N10     1.540   .     A
N3     C4      1.540   .     A
C4     X5      1.540   .     A
C4     H11     1.140   .     S
X5     N6      1.540   .     A
N7     C8      1.540   .     A
C8     X9      1.540   .     A
C8     H12     1.140   .     S
X9     N10     1.540   .     A