data_L_34
_audit_creation_date              2014-09-12
_audit_creation_method            'Materials Studio'
_symmetry_space_group_name_H-M    'P1'
_symmetry_Int_Tables_number       1
_symmetry_cell_setting            triclinic
loop_
_symmetry_equiv_pos_as_xyz
  x,y,z
_cell_length_a                    20.0000
_cell_length_b                    20.0000
_cell_length_c                    20.0000
_cell_angle_alpha                 90.0000
_cell_angle_beta                  90.0000
_cell_angle_gamma                 90.0000
loop_
_atom_site_label
_atom_site_type_symbol
_atom_site_fract_x
_atom_site_fract_y
_atom_site_fract_z
_atom_site_U_iso_or_equiv
_atom_site_adp_type
_atom_site_occupancy
X1     C    -0.00860   0.23076   0.00609   0.00000  Uiso   1.00
C2     C    -0.00578   0.15383   0.00413   0.00000  Uiso   1.00
C3     C    -0.00290   0.07691   0.00210   0.00000  Uiso   1.00
C4     C    -0.00134   0.03670   0.06774   0.00000  Uiso   1.00
C5     C     0.00150  -0.04022   0.06571   0.00000  Uiso   1.00
C6     C     0.00288  -0.07692  -0.00197   0.00000  Uiso   1.00
C7     C     0.00131  -0.03672  -0.06761   0.00000  Uiso   1.00
C8     C    -0.00160   0.04020  -0.06558   0.00000  Uiso   1.00
C9     C     0.00573  -0.15385  -0.00399   0.00000  Uiso   1.00
X10    C     0.00860  -0.23076  -0.00609   0.00000  Uiso   1.00
H11    H    -0.00228   0.06387   0.11784   0.00000  Uiso   1.00
H12    H     0.00259  -0.06999   0.11430   0.00000  Uiso   1.00
H13    H     0.00230  -0.06390  -0.11771   0.00000  Uiso   1.00
H14    H    -0.00278   0.06997  -0.11417   0.00000  Uiso   1.00
loop_
_geom_bond_atom_site_label_1
_geom_bond_atom_site_label_2
_geom_bond_distance
_geom_bond_site_symmetry_2
_ccdc_geom_bond_type
X1     C2      1.540   .     T
C2     C3      1.540   .     S
C3     C4      1.540   .     A
C3     C8      1.540   .     A
C4     C5      1.540   .     A
C4     H11     1.140   .     S
C5     C6      1.540   .     A
C5     H12     1.140   .     S
C6     C7      1.540   .     A
C6     C9      1.540   .     S
C7     C8      1.540   .     A
C7     H13     1.140   .     S
C8     H14     1.140   .     S
C9     X10     1.540   .     T