data_L_35
_audit_creation_date              2014-09-12
_audit_creation_method            'Materials Studio'
_symmetry_space_group_name_H-M    'P1'
_symmetry_Int_Tables_number       1
_symmetry_cell_setting            triclinic
loop_
_symmetry_equiv_pos_as_xyz
  x,y,z
_cell_length_a                    20.0000
_cell_length_b                    20.0000
_cell_length_c                    20.0000
_cell_angle_alpha                 90.0000
_cell_angle_beta                  90.0000
_cell_angle_gamma                 90.0000
loop_
_atom_site_label
_atom_site_type_symbol
_atom_site_fract_x
_atom_site_fract_y
_atom_site_fract_z
_atom_site_U_iso_or_equiv
_atom_site_adp_type
_atom_site_occupancy
C1     C    -0.07698  -0.00027  -0.00003   0.00000  Uiso   1.00
N2     N    -0.03776  -0.06650  -0.00002   0.00000  Uiso   1.00
N3     N     0.03920  -0.06574  -0.00002   0.00000  Uiso   1.00
C4     C     0.07702   0.00124  -0.00002   0.00000  Uiso   1.00
N5     N     0.03786   0.06763  -0.00002   0.00000  Uiso   1.00
N6     N    -0.03919   0.06687  -0.00002   0.00000  Uiso   1.00
C7     C    -0.15400  -0.00113  -0.00002   0.00000  Uiso   1.00
X8     C    -0.23100  -0.00122   0.00000   0.00000  Uiso   1.00
C9     C     0.15401   0.00143  -0.00001   0.00000  Uiso   1.00
X10    C     0.23100   0.00122  -0.00000   0.00000  Uiso   1.00
loop_
_geom_bond_atom_site_label_1
_geom_bond_atom_site_label_2
_geom_bond_distance
_geom_bond_site_symmetry_2
_ccdc_geom_bond_type
C1     N2      1.539   .     A
C1     N6      1.541   .     A
C1     C7      1.540   .     S
N2     N3      1.539   .     A
N3     C4      1.538   .     A
C4     N5      1.542   .     A
C4     C9      1.540   .     S
N5     N6      1.541   .     A
C7     X8      1.540   .     T
C9     X10     1.540   .     T