data_L_36
_audit_creation_date              2014-09-12
_audit_creation_method            'Materials Studio'
_symmetry_space_group_name_H-M    'P1'
_symmetry_Int_Tables_number       1
_symmetry_cell_setting            triclinic
loop_
_symmetry_equiv_pos_as_xyz
  x,y,z
_cell_length_a                    20.0000
_cell_length_b                    20.0000
_cell_length_c                    20.0000
_cell_angle_alpha                 90.0000
_cell_angle_beta                  90.0000
_cell_angle_gamma                 90.0000
loop_
_atom_site_label
_atom_site_type_symbol
_atom_site_fract_x
_atom_site_fract_y
_atom_site_fract_z
_atom_site_U_iso_or_equiv
_atom_site_adp_type
_atom_site_occupancy
C1     C    -0.07779   0.16117  -0.00000   0.00000  Uiso   1.00
C2     C    -0.03929   0.09449   0.00001   0.00000  Uiso   1.00
C3     C     0.03770   0.09448   0.00001   0.00000  Uiso   1.00
C4     C     0.07620   0.16116   0.00002   0.00000  Uiso   1.00
X5     C     0.03771   0.22785   0.00001   0.00000  Uiso   1.00
C6     C    -0.03929   0.22785  -0.00000   0.00000  Uiso   1.00
C7     C     0.07620   0.02780   0.00001   0.00000  Uiso   1.00
C8     C     0.03770  -0.03889   0.00002   0.00000  Uiso   1.00
C9     C    -0.03930  -0.03888   0.00000   0.00000  Uiso   1.00
C10    C    -0.07780   0.02781   0.00001   0.00000  Uiso   1.00
C11    C    -0.15480   0.02780   0.00000   0.00000  Uiso   1.00
C12    C    -0.19330  -0.03889  -0.00001   0.00000  Uiso   1.00
C13    C    -0.15480  -0.10557  -0.00001   0.00000  Uiso   1.00
C14    C    -0.07779  -0.10556   0.00000   0.00000  Uiso   1.00
C15    C    -0.03929  -0.17225   0.00001   0.00000  Uiso   1.00
C16    C    -0.07779  -0.23894  -0.00001   0.00000  Uiso   1.00
X17    C    -0.15479  -0.23894  -0.00000   0.00000  Uiso   1.00
C18    C    -0.19329  -0.17225   0.00001   0.00000  Uiso   1.00
H19    H    -0.13479   0.16117  -0.00000   0.00000  Uiso   1.00
H20    H     0.13320   0.16116   0.00003   0.00000  Uiso   1.00
H21    H    -0.06779   0.27722  -0.00002   0.00000  Uiso   1.00
H22    H     0.13320   0.02780   0.00001   0.00000  Uiso   1.00
H23    H     0.06621  -0.08825   0.00004   0.00000  Uiso   1.00
H24    H    -0.18330   0.07716   0.00001   0.00000  Uiso   1.00
H25    H    -0.25030  -0.03889  -0.00002   0.00000  Uiso   1.00
H26    H     0.01771  -0.17226   0.00002   0.00000  Uiso   1.00
H27    H    -0.04929  -0.28830  -0.00003   0.00000  Uiso   1.00
H28    H    -0.25029  -0.17226   0.00004   0.00000  Uiso   1.00
loop_
_geom_bond_atom_site_label_1
_geom_bond_atom_site_label_2
_geom_bond_distance
_geom_bond_site_symmetry_2
_ccdc_geom_bond_type
C1     C2      1.540   .     A
C1     C6      1.540   .     A
C1     H19     1.140   .     S
C2     C3      1.540   .     A
C2     C10     1.540   .     A
C3     C4      1.540   .     A
C3     C7      1.540   .     A
C4     X5      1.540   .     A
C4     H20     1.140   .     S
X5     C6      1.540   .     A
C6     H21     1.140   .     S
C7     C8      1.540   .     A
C7     H22     1.140   .     S
C8     C9      1.540   .     A
C8     H23     1.140   .     S
C9     C10     1.540   .     A
C9     C14     1.540   .     A
C10    C11     1.540   .     A
C11    C12     1.540   .     A
C11    H24     1.140   .     S
C12    C13     1.540   .     A
C12    H25     1.140   .     S
C13    C14     1.540   .     A
C13    C18     1.540   .     A
C14    C15     1.540   .     A
C15    C16     1.540   .     A
C15    H26     1.140   .     S
C16    X17     1.540   .     A
C16    H27     1.140   .     S
X17    C18     1.540   .     A
C18    H28     1.140   .     S