data_L_37
_audit_creation_date              2014-09-13
_audit_creation_method            'Materials Studio'
_symmetry_space_group_name_H-M    'P1'
_symmetry_Int_Tables_number       1
_symmetry_cell_setting            triclinic
loop_
_symmetry_equiv_pos_as_xyz
  x,y,z
_cell_length_a                    20.0000
_cell_length_b                    20.0000
_cell_length_c                    20.0000
_cell_angle_alpha                 90.0000
_cell_angle_beta                  90.0000
_cell_angle_gamma                 90.0000
loop_
_atom_site_label
_atom_site_type_symbol
_atom_site_fract_x
_atom_site_fract_y
_atom_site_fract_z
_atom_site_U_iso_or_equiv
_atom_site_adp_type
_atom_site_occupancy
C1     C     0.00308   0.13364  -0.00007   0.00000  Uiso   1.00
C2     C     0.03976   0.06594  -0.00003   0.00000  Uiso   1.00
C3     C     0.11672   0.06388  -0.00000   0.00000  Uiso   1.00
C4     C     0.15702   0.12948   0.00000   0.00000  Uiso   1.00
X5     C     0.12036   0.19717  -0.00004   0.00000  Uiso   1.00
C6     C     0.04339   0.19925  -0.00007   0.00000  Uiso   1.00
C7     C    -0.00045   0.00028  -0.00002   0.00000  Uiso   1.00
C8     C    -0.04052  -0.06547  -0.00001   0.00000  Uiso   1.00
C9     C    -0.08048  -0.13129   0.00002   0.00000  Uiso   1.00
X10    C    -0.12036  -0.19717   0.00004   0.00000  Uiso   1.00
H11    H    -0.05390   0.13518  -0.00009   0.00000  Uiso   1.00
H12    H     0.14389   0.01377   0.00001   0.00000  Uiso   1.00
H13    H     0.21400   0.12792   0.00004   0.00000  Uiso   1.00
H14    H     0.01624   0.24936  -0.00011   0.00000  Uiso   1.00
loop_
_geom_bond_atom_site_label_1
_geom_bond_atom_site_label_2
_geom_bond_distance
_geom_bond_site_symmetry_2
_ccdc_geom_bond_type
C1     C2      1.540   .     A
C1     C6      1.540   .     A
C1     H11     1.140   .     S
C2     C3      1.540   .     A
C2     C7      1.540   .     S
C3     C4      1.540   .     A
C3     H12     1.140   .     S
C4     X5      1.540   .     A
C4     H13     1.140   .     S
X5     C6      1.540   .     A
C6     H14     1.140   .     S
C7     C8      1.540   .     T
C8     C9      1.540   .     S
C9     X10     1.540   .     T