data_L_46
_audit_creation_date              2014-09-12
_audit_creation_method            'Materials Studio'
_symmetry_space_group_name_H-M    'P1'
_symmetry_Int_Tables_number       1
_symmetry_cell_setting            triclinic
loop_
_symmetry_equiv_pos_as_xyz
  x,y,z
_cell_length_a                    20.0000
_cell_length_b                    20.0000
_cell_length_c                    20.0000
_cell_angle_alpha                 90.0000
_cell_angle_beta                  90.0000
_cell_angle_gamma                 90.0000
loop_
_atom_site_label
_atom_site_type_symbol
_atom_site_fract_x
_atom_site_fract_y
_atom_site_fract_z
_atom_site_U_iso_or_equiv
_atom_site_adp_type
_atom_site_occupancy
C1     C     0.12621   0.18559  -0.08648   0.00000  Uiso   1.00
C2     C     0.10699   0.15914  -0.01677   0.00000  Uiso   1.00
C3     C     0.13115   0.19596   0.04639   0.00000  Uiso   1.00
C4     C     0.17460   0.25918   0.03984   0.00000  Uiso   1.00
X5     C     0.19386   0.28561  -0.02986   0.00000  Uiso   1.00
C6     C     0.16965   0.24882  -0.09303   0.00000  Uiso   1.00
C7     C     0.06372   0.09579  -0.01022   0.00000  Uiso   1.00
C8     C     0.02052   0.03239  -0.00362   0.00000  Uiso   1.00
C9     C    -0.02257  -0.03107   0.00303   0.00000  Uiso   1.00
C10    C    -0.06556  -0.09460   0.00971   0.00000  Uiso   1.00
C11    C    -0.10848  -0.15817   0.01641   0.00000  Uiso   1.00
C12    C    -0.12653  -0.18523   0.08620   0.00000  Uiso   1.00
C13    C    -0.16920  -0.24896   0.09292   0.00000  Uiso   1.00
X14    C    -0.19386  -0.28561   0.02986   0.00000  Uiso   1.00
C15    C    -0.17587  -0.25850  -0.03993   0.00000  Uiso   1.00
C16    C    -0.13318  -0.19478  -0.04665   0.00000  Uiso   1.00
H17    H     0.10828   0.15837  -0.13324   0.00000  Uiso   1.00
H18    H     0.11689   0.17639   0.09799   0.00000  Uiso   1.00
H19    H     0.19249   0.28643   0.08660   0.00000  Uiso   1.00
H20    H     0.18388   0.26841  -0.14463   0.00000  Uiso   1.00
H21    H    -0.10825  -0.15811   0.13289   0.00000  Uiso   1.00
H22    H    -0.18252  -0.26902   0.14458   0.00000  Uiso   1.00
H23    H    -0.19416  -0.28561  -0.08661   0.00000  Uiso   1.00
H24    H    -0.11985  -0.17472  -0.09832   0.00000  Uiso   1.00
loop_
_geom_bond_atom_site_label_1
_geom_bond_atom_site_label_2
_geom_bond_distance
_geom_bond_site_symmetry_2
_ccdc_geom_bond_type
C1     C2      1.540   .     A
C1     C6      1.540   .     A
C1     H17     1.140   .     S
C2     C3      1.540   .     A
C2     C7      1.540   .     S
C3     C4      1.540   .     A
C3     H18     1.140   .     S
C4     X5      1.540   .     A
C4     H19     1.140   .     S
X5     C6      1.540   .     A
C6     H20     1.140   .     S
C7     C8      1.540   .     T
C8     C9      1.540   .     S
C9     C10     1.540   .     T
C10    C11     1.540   .     S
C11    C12     1.540   .     A
C11    C16     1.540   .     A
C12    C13     1.540   .     A
C12    H21     1.140   .     S
C13    X14     1.540   .     A
C13    H22     1.140   .     S
X14    C15     1.540   .     A
C15    C16     1.540   .     A
C15    H23     1.140   .     S
C16    H24     1.140   .     S